data/pglib_opf_case2383wp_k_storage.m
%%%%%%%%%%%%%%%%%%%%%%%%%%%%%%%%%%%%%%%%%%%%%%%%%%%%%%%%%%%%%%%%%%%%%%%%%%%
%%%%                                                                  %%%%%
%%%%    IEEE PES Power Grid Library - Optimal Power Flow - v23.07     %%%%%
%%%%          (https://github.com/power-grid-lib/pglib-opf)           %%%%%
%%%%               Benchmark Group - Typical Operations               %%%%%
%%%%                         23 - July - 2023                         %%%%%
%%%%                                                                  %%%%%
%%%%%%%%%%%%%%%%%%%%%%%%%%%%%%%%%%%%%%%%%%%%%%%%%%%%%%%%%%%%%%%%%%%%%%%%%%%
%
%   Power flow data for Polish system - winter 1999-2000 peak.
%
%   This case represents the Polish 400, 220 and 110 kV networks during
%   winter 1999-2000 peak conditions. It is part of the 7500+ bus
%   Europen UCTE system. To decrease the number of buses, the tie lines
%   to foreign networks were replaced by artificial load or generator
%   buses (180-186). Multiple generators at a bus have been aggregated.
%   Generators that are not centrally dispatchable in the Polish energy
%   market are given a cost of zero.
%
%   Copyright (c) 2010 by Roman Korab <roman.korab@polsl.pl>
%   Licensed under the Creative Commons Attribution 4.0
%   International license, http://creativecommons.org/licenses/by/4.0/
%
% Modified to have additional storage capacity and increased gencost
function mpc = pglib_opf_case2383wp_k
mpc.version = '2';
mpc.baseMVA = 100.0;

%% bus data
%	bus_i	type	Pd	Qd	Gs	Bs	area	Vm	Va	baseKV	zone	Vmax	Vmin
mpc.bus = [
	1	 1	 0.0	 0.0	 0.0	 0.0	 1	    1.03000	    0.00000	 220.0	 1	    1.11000	    0.95000;
	2	 1	 0.0	 0.0	 0.0	 0.0	 1	    1.03000	    0.00000	 220.0	 1	    1.11000	    0.95000;
	3	 1	 0.0	 0.0	 0.0	 0.0	 1	    1.03000	    0.00000	 220.0	 1	    1.11000	    0.95000;
	4	 1	 0.0	 0.0	 0.0	 0.0	 1	    1.03000	    0.00000	 220.0	 1	    1.11000	    0.95000;
	5	 1	 0.0	 0.0	 0.0	 0.0	 1	    1.03000	    0.00000	 220.0	 1	    1.11000	    0.95000;
	6	 1	 0.0	 0.0	 0.0	 0.0	 1	    1.00000	    0.00000	 400.0	 1	    1.05000	    0.95000;
	7	 1	 0.0	 0.0	 0.0	 0.0	 1	    1.03000	    0.00000	 220.0	 1	    1.11000	    0.95000;
	8	 1	 0.0	 0.0	 0.0	 0.0	 1	    1.00000	    0.00000	 400.0	 1	    1.05000	    0.95000;
	9	 1	 0.0	 0.0	 0.0	 0.0	 1	    1.00000	    0.00000	 400.0	 1	    1.05000	    0.95000;
	10	 2	 12.23	 9.0	 0.0	 0.0	 1	    1.03000	    0.00000	 220.0	 1	    1.11000	    0.95000;
	11	 1	 0.0	 0.0	 0.0	 0.0	 1	    1.03000	    0.00000	 220.0	 1	    1.11000	    0.95000;
	12	 1	 0.0	 0.0	 0.0	 0.0	 1	    1.03000	    0.00000	 220.0	 1	    1.11000	    0.95000;
	13	 1	 0.0	 0.0	 0.0	 0.0	 1	    1.03000	    0.00000	 220.0	 1	    1.11000	    0.95000;
	14	 1	 0.0	 0.0	 0.0	 0.0	 1	    1.03000	    0.00000	 220.0	 1	    1.11000	    0.95000;
	15	 1	 0.0	 0.0	 0.0	 0.0	 1	    1.00000	    0.00000	 400.0	 1	    1.05000	    0.95000;
	16	 2	 54.88	 100.0	 0.0	 0.0	 1	    1.03000	    0.00000	 220.0	 1	    1.11000	    0.95000;
	17	 2	 77.0	 150.0	 0.0	 0.0	 1	    1.03000	    0.00000	 220.0	 1	    1.11000	    0.95000;
	18	 3	 153.0	 350.0	 0.0	 0.0	 1	    1.00000	    0.00000	 400.0	 1	    1.05000	    0.95000;
	19	 1	 0.0	 0.0	 0.0	 0.0	 1	    1.03000	    0.00000	 220.0	 1	    1.11000	    0.95000;
	20	 1	 0.0	 0.0	 0.0	 0.0	 1	    1.00000	    0.00000	 400.0	 1	    1.05000	    0.95000;
	21	 1	 0.0	 0.0	 0.0	 0.0	 1	    1.03000	    0.00000	 220.0	 1	    1.11000	    0.95000;
	22	 1	 0.0	 0.0	 0.0	 0.0	 1	    1.03000	    0.00000	 220.0	 1	    1.11000	    0.95000;
	23	 1	 0.0	 0.0	 0.0	 0.0	 1	    1.03000	    0.00000	 220.0	 2	    1.11000	    0.95000;
	24	 1	 0.0	 0.0	 0.0	 0.0	 1	    1.03000	    0.00000	 220.0	 2	    1.11000	    0.95000;
	25	 1	 0.0	 0.0	 0.0	 0.0	 1	    1.03000	    0.00000	 220.0	 2	    1.11000	    0.95000;
	26	 1	 0.0	 0.0	 0.0	 0.0	 1	    1.03000	    0.00000	 220.0	 2	    1.11000	    0.95000;
	27	 1	 0.0	 0.0	 0.0	 0.0	 1	    1.03000	    0.00000	 220.0	 2	    1.11000	    0.95000;
	28	 1	 0.0	 0.0	 0.0	 0.0	 1	    1.03000	    0.00000	 220.0	 2	    1.11000	    0.95000;
	29	 2	 25.98	 60.0	 0.0	 0.0	 1	    1.03000	    0.00000	 220.0	 2	    1.11000	    0.95000;
	30	 2	 25.98	 60.0	 0.0	 0.0	 1	    1.03000	    0.00000	 220.0	 2	    1.11000	    0.95000;
	31	 2	 20.98	 50.0	 0.0	 0.0	 1	    1.00000	    0.00000	 400.0	 2	    1.05000	    0.95000;
	32	 1	 0.0	 0.0	 0.0	 0.0	 1	    1.00000	    0.00000	 400.0	 2	    1.05000	    0.95000;
	33	 1	 0.0	 0.0	 0.0	 0.0	 1	    1.03000	    0.00000	 220.0	 2	    1.11000	    0.95000;
	34	 1	 0.0	 0.0	 0.0	 0.0	 1	    1.00000	    0.00000	 400.0	 2	    1.05000	    0.95000;
	35	 1	 0.0	 0.0	 0.0	 0.0	 1	    1.00000	    0.00000	 400.0	 2	    1.05000	    0.95000;
	36	 1	 0.0	 0.0	 0.0	 0.0	 1	    1.00000	    0.00000	 400.0	 2	    1.05000	    0.95000;
	37	 1	 0.0	 0.0	 0.0	 0.0	 1	    1.03000	    0.00000	 220.0	 2	    1.11000	    0.95000;
	38	 1	 0.0	 0.0	 0.0	 0.0	 1	    1.03000	    0.00000	 220.0	 2	    1.11000	    0.95000;
	39	 1	 0.0	 0.0	 0.0	 0.0	 1	    1.00000	    0.00000	 400.0	 2	    1.05000	    0.95000;
	40	 1	 0.0	 0.0	 0.0	 0.0	 1	    1.00000	    0.00000	 400.0	 2	    1.05000	    0.95000;
	41	 2	 11.99	 30.0	 0.0	 0.0	 1	    1.03000	    0.00000	 220.0	 2	    1.11000	    0.95000;
	42	 2	 11.99	 30.0	 0.0	 0.0	 1	    1.03000	    0.00000	 220.0	 2	    1.11000	    0.95000;
	43	 2	 23.98	 60.0	 0.0	 0.0	 1	    1.00000	    0.00000	 400.0	 2	    1.05000	    0.95000;
	44	 2	 23.98	 60.0	 0.0	 0.0	 1	    1.00000	    0.00000	 400.0	 2	    1.05000	    0.95000;
	45	 2	 159.84	 75.0	 0.0	 0.0	 1	    1.03000	    0.00000	 220.0	 2	    1.11000	    0.95000;
	46	 1	 0.0	 0.0	 0.0	 0.0	 1	    1.03000	    0.00000	 220.0	 2	    1.11000	    0.95000;
	47	 1	 0.0	 0.0	 0.0	 0.0	 1	    1.03000	    0.00000	 220.0	 2	    1.11000	    0.95000;
	48	 1	 0.0	 0.0	 0.0	 0.0	 1	    1.03000	    0.00000	 220.0	 2	    1.11000	    0.95000;
	49	 1	 0.0	 0.0	 0.0	 0.0	 1	    1.03000	    0.00000	 220.0	 2	    1.11000	    0.95000;
	50	 1	 0.0	 0.0	 0.0	 0.0	 1	    1.00000	    0.00000	 400.0	 2	    1.05000	    0.95000;
	51	 1	 0.0	 0.0	 0.0	 0.0	 1	    1.00000	    0.00000	 400.0	 2	    1.05000	    0.95000;
	52	 1	 0.0	 0.0	 0.0	 0.0	 1	    1.03000	    0.00000	 220.0	 2	    1.11000	    0.95000;
	53	 1	 0.0	 0.0	 0.0	 0.0	 1	    1.03000	    0.00000	 220.0	 2	    1.11000	    0.95000;
	54	 1	 0.0	 0.0	 0.0	 0.0	 1	    1.03000	    0.00000	 220.0	 2	    1.11000	    0.95000;
	55	 1	 0.0	 0.0	 0.0	 0.0	 1	    1.03000	    0.00000	 220.0	 2	    1.11000	    0.95000;
	56	 1	 0.0	 0.0	 0.0	 0.0	 1	    1.03000	    0.00000	 220.0	 3	    1.11000	    0.95000;
	57	 1	 22.98	 10.96	 0.0	 0.0	 1	    1.03000	    0.00000	 220.0	 3	    1.11000	    0.95000;
	58	 1	 21.98	 5.79	 0.0	 0.0	 1	    1.03000	    0.00000	 220.0	 3	    1.11000	    0.95000;
	59	 1	 0.0	 0.0	 0.0	 0.0	 1	    1.03000	    0.00000	 220.0	 3	    1.11000	    0.95000;
	60	 1	 0.0	 0.0	 0.0	 0.0	 1	    1.03000	    0.00000	 220.0	 3	    1.11000	    0.95000;
	61	 1	 0.0	 0.0	 0.0	 0.0	 1	    1.03000	    0.00000	 220.0	 3	    1.11000	    0.95000;
	62	 1	 0.0	 0.0	 0.0	 0.0	 1	    1.03000	    0.00000	 220.0	 3	    1.11000	    0.95000;
	63	 2	 37.37	 52.69	 0.0	 0.0	 1	    1.03000	    0.00000	 220.0	 3	    1.11000	    0.95000;
	64	 2	 35.37	 55.32	 0.0	 0.0	 1	    1.03000	    0.00000	 220.0	 3	    1.11000	    0.95000;
	65	 1	 13.39	 2.02	 0.0	 0.0	 1	    1.03000	    0.00000	 220.0	 3	    1.11000	    0.95000;
	66	 1	 0.0	 0.0	 0.0	 0.0	 1	    1.03000	    0.00000	 220.0	 3	    1.11000	    0.95000;
	67	 2	 60.4	 92.1	 0.0	 0.0	 1	    1.00000	    0.00000	 400.0	 3	    1.05000	    0.95000;
	68	 1	 0.0	 0.0	 0.0	 0.0	 1	    1.03000	    0.00000	 220.0	 3	    1.11000	    0.95000;
	69	 1	 0.0	 0.0	 0.0	 0.0	 1	    1.03000	    0.00000	 220.0	 3	    1.11000	    0.95000;
	70	 1	 0.0	 0.0	 0.0	 0.0	 1	    1.03000	    0.00000	 220.0	 3	    1.11000	    0.95000;
	71	 1	 0.0	 0.0	 0.0	 0.0	 1	    1.03000	    0.00000	 220.0	 3	    1.11000	    0.95000;
	72	 1	 0.0	 0.0	 0.0	 0.0	 1	    1.03000	    0.00000	 220.0	 3	    1.11000	    0.95000;
	73	 1	 0.0	 0.0	 0.0	 0.0	 1	    1.03000	    0.00000	 220.0	 3	    1.11000	    0.95000;
	74	 1	 0.0	 0.0	 0.0	 0.0	 1	    1.03000	    0.00000	 220.0	 3	    1.11000	    0.95000;
	75	 1	 0.0	 0.0	 0.0	 0.0	 1	    1.00000	    0.00000	 400.0	 3	    1.05000	    0.95000;
	76	 1	 0.0	 0.0	 0.0	 0.0	 1	    1.00000	    0.00000	 400.0	 3	    1.05000	    0.95000;
	77	 1	 0.0	 0.0	 0.0	 0.0	 1	    1.03000	    0.00000	 220.0	 3	    1.11000	    0.95000;
	78	 1	 0.0	 0.0	 0.0	 0.0	 1	    1.03000	    0.00000	 220.0	 3	    1.11000	    0.95000;
	79	 1	 0.0	 0.0	 0.0	 0.0	 1	    1.03000	    0.00000	 220.0	 3	    1.11000	    0.95000;
	80	 1	 0.0	 0.0	 0.0	 0.0	 1	    1.03000	    0.00000	 220.0	 3	    1.11000	    0.95000;
	81	 1	 0.0	 0.0	 0.0	 0.0	 1	    1.03000	    0.00000	 220.0	 3	    1.11000	    0.95000;
	82	 1	 0.0	 0.0	 0.0	 0.0	 1	    1.03000	    0.00000	 220.0	 3	    1.11000	    0.95000;
	83	 2	 15.99	 22.97	 0.0	 0.0	 1	    1.03000	    0.00000	 220.0	 3	    1.11000	    0.95000;
	84	 2	 15.79	 22.27	 0.0	 0.0	 1	    1.03000	    0.00000	 220.0	 3	    1.11000	    0.95000;
	85	 2	 9.99	 17.01	 0.0	 0.0	 1	    1.03000	    0.00000	 220.0	 3	    1.11000	    0.95000;
	86	 2	 9.99	 16.66	 0.0	 0.0	 1	    1.03000	    0.00000	 220.0	 3	    1.11000	    0.95000;
	87	 1	 11.09	 16.22	 0.0	 0.0	 1	    1.03000	    0.00000	 220.0	 3	    1.11000	    0.95000;
	88	 1	 0.0	 0.0	 0.0	 0.0	 1	    1.03000	    0.00000	 220.0	 3	    1.11000	    0.95000;
	89	 1	 0.0	 0.0	 0.0	 0.0	 1	    1.03000	    0.00000	 220.0	 3	    1.11000	    0.95000;
	90	 1	 0.0	 0.0	 0.0	 0.0	 1	    1.03000	    0.00000	 220.0	 3	    1.11000	    0.95000;
	91	 1	 0.0	 0.0	 0.0	 0.0	 1	    1.03000	    0.00000	 220.0	 3	    1.11000	    0.95000;
	92	 1	 0.0	 0.0	 0.0	 0.0	 1	    1.00000	    0.00000	 400.0	 3	    1.05000	    0.95000;
	93	 2	 9.99	 16.39	 0.0	 0.0	 1	    1.03000	    0.00000	 220.0	 3	    1.11000	    0.95000;
	94	 1	 0.0	 0.0	 0.0	 0.0	 1	    1.03000	    0.00000	 220.0	 3	    1.11000	    0.95000;
	95	 2	 6.89	 8.15	 0.0	 0.0	 1	    1.03000	    0.00000	 220.0	 3	    1.11000	    0.95000;
	96	 1	 0.0	 0.0	 0.0	 0.0	 1	    1.03000	    0.00000	 220.0	 3	    1.11000	    0.95000;
	97	 2	 8.69	 5.26	 0.0	 0.0	 1	    1.03000	    0.00000	 220.0	 3	    1.11000	    0.95000;
	98	 1	 0.0	 0.0	 0.0	 0.0	 1	    1.00000	    0.00000	 400.0	 3	    1.05000	    0.95000;
	99	 1	 0.0	 0.0	 0.0	 0.0	 1	    1.00000	    0.00000	 400.0	 3	    1.05000	    0.95000;
	100	 1	 0.0	 0.0	 0.0	 0.0	 1	    1.00000	    0.00000	 400.0	 3	    1.05000	    0.95000;
	101	 1	 0.0	 0.0	 0.0	 0.0	 1	    1.00000	    0.00000	 400.0	 3	    1.05000	    0.95000;
	102	 1	 0.0	 0.0	 0.0	 0.0	 1	    1.03000	    0.00000	 220.0	 3	    1.11000	    0.95000;
	103	 2	 18.09	 23.76	 0.0	 0.0	 1	    1.03000	    0.00000	 220.0	 3	    1.11000	    0.95000;
	104	 2	 33.68	 46.11	 0.0	 0.0	 1	    1.03000	    0.00000	 220.0	 3	    1.11000	    0.95000;
	105	 2	 33.78	 62.95	 0.0	 0.0	 1	    1.00000	    0.00000	 400.0	 3	    1.05000	    0.95000;
	106	 1	 0.0	 0.0	 0.0	 0.0	 1	    1.00000	    0.00000	 400.0	 3	    1.05000	    0.95000;
	107	 1	 0.0	 0.0	 0.0	 0.0	 1	    1.03000	    0.00000	 220.0	 3	    1.11000	    0.95000;
	108	 1	 0.0	 0.0	 0.0	 0.0	 1	    1.03000	    0.00000	 220.0	 3	    1.11000	    0.95000;
	109	 2	 1.0	 22.36	 0.0	 0.0	 1	    1.03000	    0.00000	 220.0	 3	    1.11000	    0.95000;
	110	 2	 1.0	 22.18	 0.0	 0.0	 1	    1.03000	    0.00000	 220.0	 3	    1.11000	    0.95000;
	111	 2	 26.49	 18.0	 0.0	 0.0	 1	    1.03000	    0.00000	 220.0	 4	    1.11000	    0.95000;
	112	 1	 0.0	 0.0	 0.0	 0.0	 1	    1.03000	    0.00000	 220.0	 4	    1.11000	    0.95000;
	113	 1	 0.0	 0.0	 0.0	 0.0	 1	    1.03000	    0.00000	 220.0	 4	    1.11000	    0.95000;
	114	 1	 0.0	 0.0	 0.0	 0.0	 1	    1.03000	    0.00000	 220.0	 4	    1.11000	    0.95000;
	115	 1	 0.0	 0.0	 0.0	 0.0	 1	    1.00000	    0.00000	 400.0	 4	    1.05000	    0.95000;
	116	 1	 0.0	 0.0	 0.0	 0.0	 1	    1.00000	    0.00000	 400.0	 4	    1.05000	    0.95000;
	117	 1	 0.0	 0.0	 0.0	 0.0	 1	    1.03000	    0.00000	 220.0	 4	    1.11000	    0.95000;
	118	 1	 0.0	 0.0	 0.0	 0.0	 1	    1.03000	    0.00000	 220.0	 4	    1.11000	    0.95000;
	119	 1	 0.0	 0.0	 0.0	 0.0	 1	    1.03000	    0.00000	 220.0	 4	    1.11000	    0.95000;
	120	 1	 0.0	 0.0	 0.0	 0.0	 1	    1.03000	    0.00000	 220.0	 4	    1.11000	    0.95000;
	121	 1	 0.0	 0.0	 0.0	 0.0	 1	    1.03000	    0.00000	 220.0	 4	    1.11000	    0.95000;
	122	 1	 0.0	 0.0	 0.0	 0.0	 1	    1.03000	    0.00000	 220.0	 4	    1.11000	    0.95000;
	123	 2	 5.5	 7.0	 0.0	 0.0	 1	    1.03000	    0.00000	 220.0	 4	    1.11000	    0.95000;
	124	 2	 8.79	 17.0	 0.0	 0.0	 1	    1.03000	    0.00000	 220.0	 4	    1.11000	    0.95000;
	125	 2	 35.7	 18.3	 0.0	 0.0	 1	    1.03000	    0.00000	 220.0	 4	    1.11000	    0.95000;
	126	 1	 25.28	 15.9	 0.0	 0.0	 1	    1.03000	    0.00000	 220.0	 4	    1.11000	    0.95000;
	127	 2	 25.71	 15.3	 0.0	 0.0	 1	    1.00000	    0.00000	 400.0	 4	    1.05000	    0.95000;
	128	 1	 0.0	 0.0	 0.0	 0.0	 1	    1.00000	    0.00000	 400.0	 4	    1.05000	    0.95000;
	129	 1	 0.0	 0.0	 0.0	 0.0	 1	    1.03000	    0.00000	 220.0	 4	    1.11000	    0.95000;
	130	 1	 0.0	 0.0	 0.0	 0.0	 1	    1.03000	    0.00000	 220.0	 4	    1.11000	    0.95000;
	131	 2	 68.67	 70.0	 0.0	 0.0	 1	    1.03000	    0.00000	 220.0	 4	    1.11000	    0.95000;
	132	 2	 33.0	 45.0	 0.0	 0.0	 1	    1.03000	    0.00000	 220.0	 4	    1.11000	    0.95000;
	133	 1	 0.0	 0.0	 0.0	 0.0	 1	    1.00000	    0.00000	 400.0	 4	    1.05000	    0.95000;
	134	 1	 0.0	 0.0	 0.0	 0.0	 1	    1.00000	    0.00000	 400.0	 4	    1.05000	    0.95000;
	135	 1	 0.0	 0.0	 0.0	 0.0	 1	    1.03000	    0.00000	 220.0	 4	    1.11000	    0.95000;
	136	 1	 0.0	 0.0	 0.0	 0.0	 1	    1.03000	    0.00000	 220.0	 4	    1.11000	    0.95000;
	137	 1	 0.0	 0.0	 0.0	 0.0	 1	    1.00000	    0.00000	 400.0	 4	    1.05000	    0.95000;
	138	 1	 0.0	 0.0	 0.0	 0.0	 1	    1.00000	    0.00000	 400.0	 4	    1.05000	    0.95000;
	139	 2	 33.2	 22.6	 0.0	 0.0	 1	    1.03000	    0.00000	 220.0	 4	    1.11000	    0.95000;
	140	 2	 29.23	 19.6	 0.0	 0.0	 1	    1.03000	    0.00000	 220.0	 4	    1.11000	    0.95000;
	141	 1	 0.0	 0.0	 0.0	 0.0	 1	    1.03000	    0.00000	 220.0	 4	    1.11000	    0.95000;
	142	 1	 0.0	 0.0	 0.0	 0.0	 1	    1.03000	    0.00000	 220.0	 4	    1.11000	    0.95000;
	143	 1	 0.0	 0.0	 0.0	 0.0	 1	    1.03000	    0.00000	 220.0	 4	    1.11000	    0.95000;
	144	 1	 0.0	 0.0	 0.0	 0.0	 1	    1.03000	    0.00000	 220.0	 4	    1.11000	    0.95000;
	145	 1	 0.0	 0.0	 0.0	 0.0	 1	    1.00000	    0.00000	 400.0	 4	    1.05000	    0.95000;
	146	 1	 0.0	 0.0	 0.0	 0.0	 1	    1.00000	    0.00000	 400.0	 4	    1.05000	    0.95000;
	147	 1	 0.0	 0.0	 0.0	 0.0	 1	    1.03000	    0.00000	 220.0	 4	    1.11000	    0.95000;
	148	 1	 0.0	 0.0	 0.0	 0.0	 1	    1.03000	    0.00000	 220.0	 4	    1.11000	    0.95000;
	149	 1	 0.0	 0.0	 0.0	 0.0	 1	    1.03000	    0.00000	 220.0	 4	    1.11000	    0.95000;
	150	 1	 0.0	 0.0	 0.0	 0.0	 1	    1.03000	    0.00000	 220.0	 4	    1.11000	    0.95000;
	151	 1	 0.0	 0.0	 0.0	 0.0	 1	    1.03000	    0.00000	 220.0	 4	    1.11000	    0.95000;
	152	 1	 0.0	 0.0	 0.0	 0.0	 1	    1.03000	    0.00000	 220.0	 4	    1.11000	    0.95000;
	153	 1	 0.0	 0.0	 0.0	 0.0	 1	    1.03000	    0.00000	 220.0	 4	    1.11000	    0.95000;
	154	 1	 0.0	 0.0	 0.0	 0.0	 1	    1.03000	    0.00000	 220.0	 4	    1.11000	    0.95000;
	155	 1	 0.0	 0.0	 0.0	 0.0	 1	    1.03000	    0.00000	 220.0	 5	    1.11000	    0.95000;
	156	 1	 0.0	 0.0	 0.0	 0.0	 1	    1.03000	    0.00000	 220.0	 5	    1.11000	    0.95000;
	157	 1	 0.0	 0.0	 0.0	 0.0	 1	    1.00000	    0.00000	 400.0	 5	    1.05000	    0.95000;
	158	 1	 0.0	 0.0	 0.0	 0.0	 1	    1.00000	    0.00000	 400.0	 5	    1.05000	    0.95000;
	159	 1	 0.0	 0.0	 0.0	 0.0	 1	    1.00000	    0.00000	 400.0	 5	    1.05000	    0.95000;
	160	 1	 0.0	 0.0	 0.0	 0.0	 1	    1.00000	    0.00000	 400.0	 5	    1.05000	    0.95000;
	161	 1	 0.0	 0.0	 0.0	 0.0	 1	    1.03000	    0.00000	 220.0	 5	    1.11000	    0.95000;
	162	 1	 0.0	 0.0	 0.0	 0.0	 1	    1.03000	    0.00000	 220.0	 5	    1.11000	    0.95000;
	163	 1	 0.0	 0.0	 0.0	 0.0	 1	    1.03000	    0.00000	 220.0	 5	    1.11000	    0.95000;
	164	 1	 0.0	 0.0	 0.0	 0.0	 1	    1.03000	    0.00000	 220.0	 5	    1.11000	    0.95000;
	165	 1	 0.0	 0.0	 0.0	 0.0	 1	    1.00000	    0.00000	 400.0	 5	    1.05000	    0.95000;
	166	 1	 0.0	 0.0	 0.0	 0.0	 1	    1.03000	    0.00000	 220.0	 5	    1.11000	    0.95000;
	167	 1	 0.0	 0.0	 0.0	 0.0	 1	    1.03000	    0.00000	 220.0	 5	    1.11000	    0.95000;
	168	 1	 0.0	 0.0	 0.0	 0.0	 1	    1.00000	    0.00000	 400.0	 5	    1.05000	    0.95000;
	169	 1	 0.0	 0.0	 0.0	 0.0	 1	    1.00000	    0.00000	 400.0	 5	    1.05000	    0.95000;
	170	 1	 0.0	 0.0	 0.0	 0.0	 1	    1.03000	    0.00000	 220.0	 5	    1.11000	    0.95000;
	171	 1	 0.0	 0.0	 0.0	 0.0	 1	    1.03000	    0.00000	 220.0	 5	    1.11000	    0.95000;
	172	 1	 0.0	 0.0	 0.0	 0.0	 1	    1.03000	    0.00000	 220.0	 5	    1.11000	    0.95000;
	173	 1	 0.0	 0.0	 0.0	 0.0	 1	    1.03000	    0.00000	 220.0	 5	    1.11000	    0.95000;
	174	 1	 0.0	 0.0	 0.0	 0.0	 1	    1.03000	    0.00000	 220.0	 5	    1.11000	    0.95000;
	175	 1	 0.0	 0.0	 0.0	 0.0	 1	    1.03000	    0.00000	 220.0	 5	    1.11000	    0.95000;
	176	 2	 0.0	 40.0	 0.0	 0.0	 1	    1.00000	    0.00000	 400.0	 5	    1.05000	    0.95000;
	177	 2	 0.0	 40.0	 0.0	 0.0	 1	    1.00000	    0.00000	 400.0	 5	    1.05000	    0.95000;
	178	 1	 0.0	 0.0	 0.0	 0.0	 1	    1.03000	    0.00000	 220.0	 5	    1.11000	    0.95000;
	179	 1	 0.0	 0.0	 0.0	 0.0	 1	    1.03000	    0.00000	 220.0	 5	    1.11000	    0.95000;
	180	 2	 339.85	 49.6	 0.0	 0.0	 2	    1.00000	    0.00000	 400.0	 6	    1.05000	    0.95000;
	181	 2	 0.0	 0.0	 0.0	 0.0	 3	    1.03000	    0.00000	 220.0	 6	    1.11000	    0.95000;
	182	 2	 0.0	 0.0	 0.0	 0.0	 5	    1.00000	    0.00000	 400.0	 6	    1.05000	    0.95000;
	183	 1	 150.0	 0.0	 0.0	 0.0	 3	    1.00000	    0.00000	 400.0	 6	    1.05000	    0.95000;
	184	 2	 317.34	 50.3	 0.0	 0.0	 2	    1.03000	    0.00000	 220.0	 6	    1.11000	    0.95000;
	185	 2	 362.43	 36.7	 0.0	 0.0	 2	    1.00000	    0.00000	 400.0	 6	    1.05000	    0.95000;
	186	 2	 33.33	 1.0	 0.0	 0.0	 5	    1.03000	    0.00000	 220.0	 6	    1.11000	    0.95000;
	187	 1	 7.12	 1.5	 0.0	 0.0	 1	    1.03500	    0.00000	 110.0	 1	    1.12000	    0.95000;
	188	 1	 7.63	 1.0	 0.0	 0.0	 1	    1.03500	    0.00000	 110.0	 1	    1.12000	    0.95000;
	189	 1	 9.77	 8.7	 0.0	 0.0	 1	    1.03500	    0.00000	 110.0	 1	    1.12000	    0.95000;
	190	 1	 6.12	 1.5	 0.0	 0.0	 1	    1.03500	    0.00000	 110.0	 1	    1.12000	    0.95000;
	191	 1	 6.12	 1.6	 0.0	 0.0	 1	    1.03500	    0.00000	 110.0	 1	    1.12000	    0.95000;
	192	 2	 30.56	 12.0	 0.0	 0.0	 1	    1.03500	    0.00000	 110.0	 1	    1.12000	    0.95000;
	193	 1	 15.28	 3.0	 0.0	 0.0	 1	    1.03500	    0.00000	 110.0	 1	    1.12000	    0.95000;
	194	 1	 0.0	 0.0	 0.0	 0.0	 1	    1.03500	    0.00000	 110.0	 1	    1.12000	    0.95000;
	195	 1	 8.14	 2.0	 0.0	 0.0	 1	    1.03500	    0.00000	 110.0	 1	    1.12000	    0.95000;
	196	 2	 6.92	 1.5	 0.0	 0.0	 1	    1.03500	    0.00000	 110.0	 1	    1.12000	    0.95000;
	197	 1	 6.92	 1.5	 0.0	 0.0	 1	    1.03500	    0.00000	 110.0	 1	    1.12000	    0.95000;
	198	 2	 12.32	 1.7	 0.0	 0.0	 1	    1.03500	    0.00000	 110.0	 1	    1.12000	    0.95000;
	199	 1	 1.43	 0.5	 0.0	 0.0	 1	    1.03500	    0.00000	 110.0	 1	    1.12000	    0.95000;
	200	 1	 1.08	 0.5	 0.0	 0.0	 1	    1.03500	    0.00000	 110.0	 1	    1.12000	    0.95000;
...
];

%% generator data
%	bus	Pg	Qg	Qmax	Qmin	Vg	mBase	status	Pmax	Pmin
mpc.gen = [
	10	 235.0	 60.0	 120.0	 0.0	 1.03	 168.0	 1	 400.0	 70.0;
	16	 420.0	 200.0	 440.0	 -40.0	 1.03	 823.0	 1	 720.0	 120.0;
	17	 600.0	 300.0	 660.0	 -60.0	 1.03	 1234.0	 1	 1080.0	 120.0;
	18	 1320.0	 700.0	 1540.0	 -140.0	 1.0	 2879.0	 1	 2520.0	 120.0;
	29	 235.0	 120.0	 240.0	 0.0	 1.03	 511.0	 1	 400.0	 70.0;
	30	 435.0	 120.0	 240.0	 0.0	 1.03	 511.0	 1	 800.0	 70.0;
	31	 575.0	 175.0	 350.0	 0.0	 1.0	 420.0	 1	 1000.0	 150.0;
	41	 135.0	 60.0	 120.0	 0.0	 1.03	 241.0	 1	 200.0	 70.0;
	42	 240.0	 60.0	 120.0	 0.0	 1.03	 241.0	 1	 410.0	 70.0;
	43	 240.0	 120.0	 240.0	 0.0	 1.0	 482.0	 1	 410.0	 70.0;
	44	 240.0	 120.0	 240.0	 0.0	 1.0	 482.0	 1	 410.0	 70.0;
	45	 40.67	 10.5	 21.0	 0.0	 1.03	 49.0	 1	 42.2	 39.14;
	63	 397.5	 151.0	 302.0	 0.0	 1.03	 473.0	 1	 650.0	 145.0;
	64	 297.5	 156.5	 311.0	 2.0	 1.03	 475.0	 1	 450.0	 145.0;
	67	 485.0	 224.5	 449.0	 0.0	 1.0	 864.0	 1	 750.0	 220.0;
	83	 182.5	 50.5	 190.0	 -89.0	 1.03	 239.0	 1	 225.0	 140.0;
	84	 182.5	 50.5	 190.0	 -89.0	 1.03	 251.0	 1	 225.0	 140.0;
	85	 80.0	 37.5	 125.0	 -50.0	 1.03	 133.0	 1	 120.0	 40.0;
	86	 80.0	 37.5	 125.0	 -50.0	 1.03	 133.0	 1	 120.0	 40.0;
	93	 100.0	 47.5	 90.0	 5.0	 1.03	 123.0	 1	 120.0	 80.0;
	95	 80.0	 47.5	 68.0	 27.0	 1.03	 105.0	 1	 110.0	 50.0;
	97	 85.43	 47.5	 68.0	 27.0	 1.03	 105.0	 1	 87.6	 83.26;
	103	 280.0	 47.5	 177.0	 -82.0	 1.03	 239.0	 1	 400.0	 160.0;
	104	 182.5	 101.0	 379.0	 -177.0	 1.03	 490.0	 1	 225.0	 140.0;
	105	 295.0	 94.0	 353.0	 -165.0	 1.0	 502.0	 1	 430.0	 160.0;
	109	 165.0	 32.5	 65.0	 0.0	 1.03	 277.0	 1	 250.0	 80.0;
	110	 165.0	 32.5	 65.0	 0.0	 1.03	 280.0	 1	 250.0	 80.0;
	111	 200.0	 135.0	 270.0	 0.0	 1.03	 401.0	 1	 360.0	 40.0;
	123	 65.0	 20.0	 40.0	 0.0	 1.03	 98.0	 1	 110.0	 20.0;
	124	 85.0	 45.0	 90.0	 0.0	 1.03	 132.0	 1	 125.0	 45.0;
	125	 465.0	 180.0	 360.0	 0.0	 1.03	 654.0	 1	 860.0	 70.0;
	127	 380.0	 180.0	 360.0	 0.0	 1.0	 540.0	 1	 690.0	 70.0;
	131	 565.0	 180.0	 360.0	 0.0	 1.03	 696.0	 1	 1060.0	 70.0;
	132	 335.0	 240.0	 480.0	 0.0	 1.03	 732.0	 1	 600.0	 70.0;
	139	 335.0	 180.0	 360.0	 0.0	 1.03	 714.0	 1	 600.0	 70.0;
	140	 135.0	 60.0	 120.0	 0.0	 1.03	 240.0	 1	 200.0	 70.0;
	176	 335.0	 50.0	 220.0	 -120.0	 1.0	 430.0	 1	 600.0	 70.0;
	177	 135.0	 50.0	 220.0	 -120.0	 1.0	 430.0	 1	 200.0	 70.0;
	180	 0.0	 0.0	 50.5632	 -50.5632	 1.0	 7485.0	 1	 0.0	 0.0;
	181	 174.5	 0.0	 78.4518	 -78.4518	 1.03	 210.0	 1	 175.0	 174.0;
	182	 306.795	 0.0	 145.6185	 -145.6185	 1.0	 13465.0	 1	 307.59	 306.0;
	184	 0.0	 0.0	 208.7361	 -208.7361	 1.03	 8353.0	 1	 0.0	 0.0;
	185	 0.0	 0.0	 36.699	 -36.699	 1.0	 14254.0	 1	 0.0	 0.0;
	186	 0.0	 0.0	 96.2922	 -96.2922	 1.03	 7401.0	 1	 0.0	 0.0;
	192	 92.625	 25.0	 50.0	 0.0	 1.035	 114.0	 1	 95.0	 90.25;
	196	 0.88	 0.5	 1.0	 0.0	 1.035	 1.0	 1	 0.9	 0.86;
	198	 0.78	 0.5	 1.0	 0.0	 1.035	 1.0	 1	 0.8	 0.76;
	205	 14.625	 5.0	 10.0	 0.0	 1.035	 18.0	 1	 15.0	 14.25;
	213	 10.725	 4.0	 8.0	 0.0	 1.035	 13.0	 1	 11.0	 10.45;
	264	 2.44	 1.0	 2.0	 0.0	 1.035	 3.0	 1	 2.5	 2.38;
	269	 5.85	 2.5	 5.0	 0.0	 1.035	 7.0	 1	 6.0	 5.7;
	277	 68.25	 21.0	 42.0	 0.0	 1.035	 84.0	 1	 70.0	 66.5;
	278	 58.5	 20.0	 40.0	 0.0	 1.035	 72.0	 1	 60.0	 57.0;
	279	 58.5	 20.0	 40.0	 0.0	 1.035	 72.0	 1	 60.0	 57.0;
	281	 117.0	 45.0	 90.0	 0.0	 1.035	 144.0	 1	 120.0	 114.0;
	282	 39.0	 20.0	 40.0	 0.0	 1.035	 48.0	 1	 40.0	 38.0;
	289	 2.44	 1.5	 3.0	 0.0	 1.035	 3.0	 1	 2.5	 2.38;
	294	 1.95	 0.5	 1.0	 0.0	 1.035	 2.0	 1	 2.0	 1.9;
	314	 1.465	 0.5	 1.0	 0.0	 1.035	 2.0	 1	 1.5	 1.43;
	328	 42.9	 10.5	 21.0	 0.0	 1.035	 53.0	 1	 44.0	 41.8;
	329	 42.9	 10.5	 21.0	 0.0	 1.035	 53.0	 1	 44.0	 41.8;
	330	 42.9	 10.5	 21.0	 0.0	 1.035	 53.0	 1	 44.0	 41.8;
	331	 41.925	 10.5	 21.0	 0.0	 1.035	 52.0	 1	 43.0	 40.85;
	334	 1.465	 0.5	 1.0	 0.0	 1.035	 2.0	 1	 1.5	 1.43;
	346	 135.0	 60.0	 120.0	 0.0	 1.035	 180.0	 1	 200.0	 70.0;
	347	 10.0	 7.5	 15.0	 0.0	 1.035	 12.0	 1	 10.0	 10.0;
	359	 1.465	 0.5	 1.0	 0.0	 1.035	 2.0	 1	 1.5	 1.43;
	365	 4.975	 1.5	 3.0	 0.0	 1.035	 6.0	 1	 5.1	 4.85;
	382	 7.8	 2.5	 5.0	 0.0	 1.035	 10.0	 1	 8.0	 7.6;
	383	 7.8	 2.5	 5.0	 0.0	 1.035	 10.0	 1	 8.0	 7.6;
	385	 5.85	 2.0	 4.0	 0.0	 1.035	 7.0	 1	 6.0	 5.7;
	390	 4.39	 1.5	 3.0	 0.0	 1.035	 5.0	 1	 4.5	 4.28;
	395	 9.75	 4.0	 8.0	 0.0	 1.035	 12.0	 1	 10.0	 9.5;
	404	 2.925	 1.5	 3.0	 0.0	 1.035	 4.0	 1	 3.0	 2.85;
	426	 3.12	 1.0	 2.0	 0.0	 1.035	 4.0	 1	 3.2	 3.04;
	444	 0.975	 0.5	 1.0	 0.0	 1.035	 1.0	 1	 1.0	 0.95;
	451	 4.39	 1.5	 3.0	 0.0	 1.035	 5.0	 1	 4.5	 4.28;
	482	 0.975	 0.5	 1.0	 0.0	 1.035	 1.0	 1	 1.0	 0.95;
	492	 1.95	 0.5	 1.0	 0.0	 1.035	 2.0	 1	 2.0	 1.9;
	493	 228.15	 65.0	 130.0	 0.0	 1.035	 281.0	 1	 234.0	 222.3;
	494	 228.15	 65.0	 130.0	 0.0	 1.035	 281.0	 1	 234.0	 222.3;
	514	 112.125	 45.0	 90.0	 0.0	 1.035	 138.0	 1	 115.0	 109.25;
	515	 112.125	 45.0	 90.0	 0.0	 1.035	 138.0	 1	 115.0	 109.25;
	525	 5.85	 2.0	 4.0	 0.0	 1.035	 7.0	 1	 6.0	 5.7;
	536	 5.85	 3.0	 6.0	 0.0	 1.035	 7.0	 1	 6.0	 5.7;
	537	 3.415	 1.5	 3.0	 0.0	 1.035	 4.0	 1	 3.5	 3.33;
	556	 2.635	 0.5	 1.0	 0.0	 1.035	 3.0	 1	 2.7	 2.57;
	580	 1.56	 0.5	 1.0	 0.0	 1.035	 2.0	 1	 1.6	 1.52;
	584	 2.635	 1.0	 2.0	 0.0	 1.035	 3.0	 1	 2.7	 2.57;
	585	 3.9	 1.0	 2.0	 0.0	 1.035	 5.0	 1	 4.0	 3.8;
	607	 0.78	 0.0	 0.0	 0.0	 1.035	 1.0	 1	 0.8	 0.76;
	612	 135.0	 60.0	 120.0	 0.0	 1.035	 256.0	 1	 200.0	 70.0;
	613	 135.0	 60.0	 120.0	 0.0	 1.035	 256.0	 1	 200.0	 70.0;
	615	 1.365	 0.5	 1.0	 0.0	 1.035	 2.0	 1	 1.4	 1.33;
	623	 7.41	 2.5	 5.0	 0.0	 1.035	 9.0	 1	 7.6	 7.22;
	639	 9.36	 2.0	 4.0	 0.0	 1.035	 12.0	 1	 9.6	 9.12;
	651	 4.585	 1.0	 2.0	 0.0	 1.035	 6.0	 1	 4.7	 4.47;
	654	 1.365	 0.5	 1.0	 0.0	 1.035	 2.0	 1	 1.4	 1.33;
	664	 6.045	 3.0	 6.0	 0.0	 1.035	 7.0	 1	 6.2	 5.89;
	670	 2.635	 1.0	 2.0	 0.0	 1.035	 3.0	 1	 2.7	 2.57;
	674	 0.975	 0.0	 0.0	 0.0	 1.035	 1.0	 1	 1.0	 0.95;
	688	 136.0	 60.0	 120.0	 0.0	 1.035	 242.0	 1	 202.0	 70.0;
	692	 1.365	 0.5	 1.0	 0.0	 1.035	 2.0	 1	 1.4	 1.33;
	699	 3.705	 1.0	 2.0	 0.0	 1.035	 5.0	 1	 3.8	 3.61;
	712	 1.17	 0.5	 1.0	 0.0	 1.035	 1.0	 1	 1.2	 1.14;
	730	 6.73	 1.5	 3.0	 0.0	 1.035	 8.0	 1	 6.9	 6.56;
	732	 1.075	 0.5	 1.0	 0.0	 1.035	 1.0	 1	 1.1	 1.05;
	735	 4.0	 1.0	 2.0	 0.0	 1.035	 5.0	 1	 4.1	 3.9;
	740	 3.9	 0.5	 1.0	 0.0	 1.035	 5.0	 1	 4.0	 3.8;
	744	 130.65	 30.0	 60.0	 0.0	 1.035	 161.0	 1	 134.0	 127.3;
	754	 45.0	 15.0	 30.0	 0.0	 1.035	 54.0	 1	 80.0	 10.0;
	755	 167.5	 40.0	 80.0	 0.0	 1.035	 110.0	 1	 250.0	 85.0;
	760	 3.025	 1.0	 2.0	 0.0	 1.035	 4.0	 1	 3.1	 2.95;
	766	 2.05	 0.5	 1.0	 0.0	 1.035	 3.0	 1	 2.1	 2.0;
	784	 0.685	 0.0	 0.0	 0.0	 1.035	 1.0	 1	 0.7	 0.67;
	790	 48.555	 35.0	 35.0	 35.0	 1.035	 60.0	 1	 49.8	 47.31;
	795	 1.845	 1.0	 1.0	 1.0	 1.035	 2.0	 1	 1.89	 1.8;
	798	 2.915	 3.0	 3.0	 3.0	 1.035	 4.0	 1	 2.99	 2.84;
	814	 43.795	 21.0	 42.0	 0.0	 1.035	 54.0	 1	 44.92	 42.67;
	834	 39.0	 41.5	 83.0	 0.0	 1.035	 110.0	 1	 55.0	 23.0;
	878	 2.915	 0.0	 0.0	 0.0	 1.035	 4.0	 1	 2.99	 2.84;
	884	 2.43	 0.0	 0.0	 0.0	 1.035	 3.0	 1	 2.49	 2.37;
	892	 31.075	 24.0	 42.0	 6.0	 1.035	 38.0	 1	 31.87	 30.28;
	895	 8.735	 7.0	 7.0	 7.0	 1.035	 11.0	 1	 8.96	 8.51;
	901	 3.59	 2.0	 2.0	 2.0	 1.035	 4.0	 1	 3.68	 3.5;
	910	 4.465	 3.0	 3.0	 3.0	 1.035	 6.0	 1	 4.58	 4.35;
	911	 325.0	 112.0	 224.0	 0.0	 1.035	 415.0	 1	 370.0	 280.0;
	912	 325.0	 112.0	 224.0	 0.0	 1.035	 415.0	 1	 370.0	 280.0;
	914	 15.53	 10.0	 10.0	 10.0	 1.035	 19.0	 1	 15.93	 15.13;
	917	 2.04	 0.0	 0.0	 0.0	 1.035	 3.0	 1	 2.09	 1.99;
	919	 21.36	 12.0	 12.0	 12.0	 1.035	 26.0	 1	 21.91	 20.81;
	920	 1.94	 0.0	 0.0	 0.0	 1.035	 2.0	 1	 1.99	 1.89;
	929	 62.135	 39.5	 50.0	 29.0	 1.035	 77.0	 1	 63.73	 60.54;
	959	 2.43	 1.0	 1.0	 1.0	 1.035	 3.0	 1	 2.49	 2.37;
	968	 0.685	 0.0	 0.0	 0.0	 1.035	 1.0	 1	 0.7	 0.67;
	993	 3.88	 1.0	 1.0	 1.0	 1.035	 5.0	 1	 3.98	 3.78;
	994	 1.94	 1.0	 1.0	 1.0	 1.035	 2.0	 1	 1.99	 1.89;
	995	 60.0	 19.0	 38.0	 0.0	 1.035	 60.0	 1	 100.0	 20.0;
	996	 35.0	 19.0	 38.0	 0.0	 1.035	 60.0	 1	 50.0	 20.0;
	997	 35.0	 19.0	 38.0	 0.0	 1.035	 60.0	 1	 50.0	 20.0;
	1004	 4.175	 3.0	 3.0	 3.0	 1.035	 5.0	 1	 4.28	 4.07;
	1024	 0.1	 0.0	 0.0	 0.0	 1.035	 0.0	 1	 0.1	 0.1;
	1027	 24.28	 13.0	 13.0	 13.0	 1.035	 30.0	 1	 24.9	 23.66;
	1028	 2.915	 3.0	 3.0	 3.0	 1.035	 4.0	 1	 2.99	 2.84;
	1029	 24.28	 14.0	 14.0	 14.0	 1.035	 30.0	 1	 24.9	 23.66;
	1053	 58.265	 26.5	 53.0	 0.0	 1.035	 72.0	 1	 59.76	 56.77;
	1054	 29.135	 15.5	 31.0	 0.0	 1.035	 36.0	 1	 29.88	 28.39;
	1105	 7.77	 10.0	 10.0	 10.0	 1.035	 10.0	 1	 7.97	 7.57;
	1106	 22.335	 13.0	 13.0	 13.0	 1.035	 28.0	 1	 22.91	 21.76;
	1107	 10.295	 3.0	 3.0	 3.0	 1.035	 13.0	 1	 10.56	 10.03;
	1138	 43.7	 20.5	 41.0	 0.0	 1.035	 54.0	 1	 44.82	 42.58;
	1140	 150.0	 56.0	 199.0	 -87.0	 1.035	 252.0	 1	 230.0	 70.0;
	1141	 147.5	 50.5	 190.0	 -89.0	 1.035	 251.0	 1	 225.0	 70.0;
	1175	 36.895	 20.0	 20.0	 20.0	 1.035	 45.0	 1	 37.84	 35.95;
	1182	 80.0	 37.5	 125.0	 -50.0	 1.035	 133.0	 1	 120.0	 40.0;
	1183	 80.0	 37.5	 125.0	 -50.0	 1.035	 133.0	 1	 120.0	 40.0;
	1184	 80.0	 37.5	 125.0	 -50.0	 1.035	 133.0	 1	 120.0	 40.0;
	1191	 103.895	 41.0	 129.0	 -47.0	 1.035	 128.0	 1	 106.56	 101.23;
	1192	 165.0	 37.5	 125.0	 -50.0	 1.035	 123.0	 1	 250.0	 80.0;
	1201	 97.1	 45.0	 90.0	 0.0	 1.035	 120.0	 1	 99.59	 94.61;
	1202	 97.1	 45.0	 90.0	 0.0	 1.035	 120.0	 1	 99.59	 94.61;
	1203	 97.1	 45.0	 90.0	 0.0	 1.035	 120.0	 1	 99.59	 94.61;
	1232	 50.495	 20.5	 41.0	 0.0	 1.035	 62.0	 1	 51.79	 49.2;
	1233	 14.565	 20.5	 41.0	 0.0	 1.035	 18.0	 1	 14.94	 14.19;
	1244	 18.445	 20.0	 20.0	 20.0	 1.035	 23.0	 1	 18.92	 17.97;
	1247	 15.53	 12.0	 12.0	 12.0	 1.035	 19.0	 1	 15.93	 15.13;
	1250	 192.26	 75.5	 151.0	 0.0	 1.035	 237.0	 1	 197.19	 187.33;
	1268	 0.49	 0.0	 0.0	 0.0	 1.035	 1.0	 1	 0.5	 0.48;
	1316	 0.975	 0.0	 0.0	 0.0	 1.035	 1.0	 1	 1.0	 0.95;
	1325	 1.355	 0.0	 0.0	 0.0	 1.035	 2.0	 1	 1.39	 1.32;
	1349	 1.455	 0.0	 0.0	 0.0	 1.035	 2.0	 1	 1.49	 1.42;
	1356	 0.975	 2.0	 2.0	 2.0	 1.035	 1.0	 1	 1.0	 0.95;
	1359	 0.78	 1.0	 1.0	 1.0	 1.035	 1.0	 1	 0.8	 0.76;
	1393	 12.43	 5.5	 11.0	 0.0	 1.035	 15.0	 1	 12.75	 12.11;
	1403	 4.175	 1.0	 1.0	 1.0	 1.035	 5.0	 1	 4.28	 4.07;
	1416	 225.5	 95.0	 180.0	 10.0	 1.035	 246.0	 1	 371.0	 80.0;
	1417	 100.0	 62.5	 120.0	 5.0	 1.035	 123.0	 1	 120.0	 80.0;
	1418	 12.5	 47.5	 90.0	 5.0	 1.035	 123.0	 1	 20.0	 5.0;
	1426	 257.5	 47.5	 68.0	 27.0	 1.035	 106.0	 1	 495.0	 20.0;
	1429	 0.195	 0.0	 0.0	 0.0	 1.035	 0.0	 1	 0.2	 0.19;
	1469	 0.585	 0.0	 0.0	 0.0	 1.035	 1.0	 1	 0.6	 0.57;
	1475	 2.04	 2.0	 2.0	 2.0	 1.035	 3.0	 1	 2.09	 1.99;
	1504	 30.39	 2.0	 2.0	 2.0	 1.035	 37.0	 1	 31.17	 29.61;
	1505	 47.58	 4.0	 4.0	 4.0	 1.035	 59.0	 1	 48.8	 46.36;
	1514	 2.235	 1.0	 1.0	 1.0	 1.035	 3.0	 1	 2.29	 2.18;
	1534	 0.295	 0.0	 0.0	 0.0	 1.035	 0.0	 1	 0.3	 0.29;
	1536	 192.5	 50.5	 190.0	 -89.0	 1.035	 251.0	 1	 225.0	 160.0;
	1537	 192.5	 54.0	 203.0	 -95.0	 1.035	 255.0	 1	 225.0	 160.0;
	1538	 142.5	 50.5	 190.0	 -89.0	 1.035	 255.0	 1	 215.0	 70.0;
	1542	 8.735	 3.0	 3.0	 3.0	 1.035	 11.0	 1	 8.96	 8.51;
	1543	 1.17	 0.0	 0.0	 0.0	 1.035	 1.0	 1	 1.2	 1.14;
	1550	 1.745	 1.0	 1.0	 1.0	 1.035	 2.0	 1	 1.79	 1.7;
	1566	 53.4	 33.5	 47.0	 20.0	 1.035	 66.0	 1	 54.77	 52.03;
	1587	 62.145	 27.0	 27.0	 27.0	 1.035	 77.0	 1	 63.74	 60.55;
	1600	 16.995	 3.0	 3.0	 3.0	 1.035	 21.0	 1	 17.43	 16.56;
	1602	 80.0	 45.0	 90.0	 0.0	 1.035	 144.0	 1	 120.0	 40.0;
	1603	 80.0	 45.0	 90.0	 0.0	 1.035	 144.0	 1	 120.0	 40.0;
	1609	 0.295	 0.0	 0.0	 0.0	 1.035	 0.0	 1	 0.3	 0.29;
	1617	 1.95	 0.0	 0.0	 0.0	 1.035	 2.0	 1	 2.0	 1.9;
	1620	 1.56	 0.0	 0.0	 0.0	 1.035	 2.0	 1	 1.6	 1.52;
...
];

%% generator cost data
%	2	startup	shutdown	n	c(n-1)	...	c0
mpc.gencost = [
2	0.0	0.0	3	0.2	117.950000	0.000000;
2	0.0	0.0	3	0.2	48.890000	0.000000;
2	0.0	0.0	3	0.2	98.470000	0.000000;
2	0.0	0.0	3	0.2	128.730000	0.000000;
2	0.0	0.0	3	0.2	158.230000	0.000000;
2	0.0	0.0	3	0.2	165.620000	0.000000;
2	0.0	0.0	3	0.2	71.220000	0.000000;
2	0.0	0.0	3	0.2	102.250000	0.000000;
2	0.0	0.0	3	0.2	147.830000	0.000000;
2	0.0	0.0	3	0.2	75.370000	0.000000;
2	0.0	0.0	3	0.2	86.010000	0.000000;
	2	 0.0	 0.0	 3	   0.000000	   0.000000	   0.000000;
2	0.0	0.0	3	0.2	68.740000	0.000000;
2	0.0	0.0	3	0.2	81.910000	0.000000;
2	0.0	0.0	3	0.2	81.880000	0.000000;
2	0.0	0.0	3	0.2	58.780000	0.000000;
2	0.0	0.0	3	0.2	85.570000	0.000000;
2	0.0	0.0	3	0.2	101.380000	0.000000;
2	0.0	0.0	3	0.2	122.430000	0.000000;
2	0.0	0.0	3	0.2	96.620000	0.000000;
2	0.0	0.0	3	0.2	106.730000	0.000000;
	2	 0.0	 0.0	 3	   0.000000	   0.000000	   0.000000;
2	0.0	0.0	3	0.2	151.940000	0.000000;
2	0.0	0.0	3	0.2	107.510000	0.000000;
2	0.0	0.0	3	0.2	103.530000	0.000000;
	2	 0.0	 0.0	 3	   0.000000	   0.000000	   0.000000;
	2	 0.0	 0.0	 3	   0.000000	   0.000000	   0.000000;
2	0.0	0.0	3	0.2	136.480000	0.000000;
2	0.0	0.0	3	0.2	157.460000	0.000000;
2	0.0	0.0	3	0.2	83.970000	0.000000;
2	0.0	0.0	3	0.2	170.740000	0.000000;
2	0.0	0.0	3	0.2	80.910000	0.000000;
2	0.0	0.0	3	0.2	147.600000	0.000000;
2	0.0	0.0	3	0.2	158.750000	0.000000;
2	0.0	0.0	3	0.2	146.940000	0.000000;
2	0.0	0.0	3	0.2	96.320000	0.000000;
	2	 0.0	 0.0	 3	   0.000000	   0.000000	   0.000000;
	2	 0.0	 0.0	 3	   0.000000	   0.000000	   0.000000;
	2	 0.0	 0.0	 3	   0.000000	   0.000000	   0.000000;
	2	 0.0	 0.0	 3	   0.000000	   0.000000	   0.000000;
	2	 0.0	 0.0	 3	   0.000000	   0.000000	   0.000000;
	2	 0.0	 0.0	 3	   0.000000	   0.000000	   0.000000;
	2	 0.0	 0.0	 3	   0.000000	   0.000000	   0.000000;
	2	 0.0	 0.0	 3	   0.000000	   0.000000	   0.000000;
	2	 0.0	 0.0	 3	   0.000000	   0.000000	   0.000000;
	2	 0.0	 0.0	 3	   0.000000	   0.000000	   0.000000;
	2	 0.0	 0.0	 3	   0.000000	   0.000000	   0.000000;
	2	 0.0	 0.0	 3	   0.000000	   0.000000	   0.000000;
	2	 0.0	 0.0	 3	   0.000000	   0.000000	   0.000000;
	2	 0.0	 0.0	 3	   0.000000	   0.000000	   0.000000;
	2	 0.0	 0.0	 3	   0.000000	   0.000000	   0.000000;
	2	 0.0	 0.0	 3	   0.000000	   0.000000	   0.000000;
	2	 0.0	 0.0	 3	   0.000000	   0.000000	   0.000000;
	2	 0.0	 0.0	 3	   0.000000	   0.000000	   0.000000;
	2	 0.0	 0.0	 3	   0.000000	   0.000000	   0.000000;
	2	 0.0	 0.0	 3	   0.000000	   0.000000	   0.000000;
	2	 0.0	 0.0	 3	   0.000000	   0.000000	   0.000000;
	2	 0.0	 0.0	 3	   0.000000	   0.000000	   0.000000;
	2	 0.0	 0.0	 3	   0.000000	   0.000000	   0.000000;
	2	 0.0	 0.0	 3	   0.000000	   0.000000	   0.000000;
	2	 0.0	 0.0	 3	   0.000000	   0.000000	   0.000000;
	2	 0.0	 0.0	 3	   0.000000	   0.000000	   0.000000;
	2	 0.0	 0.0	 3	   0.000000	   0.000000	   0.000000;
	2	 0.0	 0.0	 3	   0.000000	   0.000000	   0.000000;
2	0.0	0.0	3	0.2	134.980000	0.000000;
	2	 0.0	 0.0	 3	   0.000000	   0.000000	   0.000000;
	2	 0.0	 0.0	 3	   0.000000	   0.000000	   0.000000;
	2	 0.0	 0.0	 3	   0.000000	   0.000000	   0.000000;
	2	 0.0	 0.0	 3	   0.000000	   0.000000	   0.000000;
	2	 0.0	 0.0	 3	   0.000000	   0.000000	   0.000000;
	2	 0.0	 0.0	 3	   0.000000	   0.000000	   0.000000;
	2	 0.0	 0.0	 3	   0.000000	   0.000000	   0.000000;
	2	 0.0	 0.0	 3	   0.000000	   0.000000	   0.000000;
	2	 0.0	 0.0	 3	   0.000000	   0.000000	   0.000000;
	2	 0.0	 0.0	 3	   0.000000	   0.000000	   0.000000;
	2	 0.0	 0.0	 3	   0.000000	   0.000000	   0.000000;
	2	 0.0	 0.0	 3	   0.000000	   0.000000	   0.000000;
	2	 0.0	 0.0	 3	   0.000000	   0.000000	   0.000000;
	2	 0.0	 0.0	 3	   0.000000	   0.000000	   0.000000;
	2	 0.0	 0.0	 3	   0.000000	   0.000000	   0.000000;
	2	 0.0	 0.0	 3	   0.000000	   0.000000	   0.000000;
	2	 0.0	 0.0	 3	   0.000000	   0.000000	   0.000000;
	2	 0.0	 0.0	 3	   0.000000	   0.000000	   0.000000;
	2	 0.0	 0.0	 3	   0.000000	   0.000000	   0.000000;
	2	 0.0	 0.0	 3	   0.000000	   0.000000	   0.000000;
	2	 0.0	 0.0	 3	   0.000000	   0.000000	   0.000000;
	2	 0.0	 0.0	 3	   0.000000	   0.000000	   0.000000;
	2	 0.0	 0.0	 3	   0.000000	   0.000000	   0.000000;
	2	 0.0	 0.0	 3	   0.000000	   0.000000	   0.000000;
	2	 0.0	 0.0	 3	   0.000000	   0.000000	   0.000000;
	2	 0.0	 0.0	 3	   0.000000	   0.000000	   0.000000;
2	0.0	0.0	3	0.2	142.940000	0.000000;
2	0.0	0.0	3	0.2	128.220000	0.000000;
	2	 0.0	 0.0	 3	   0.000000	   0.000000	   0.000000;
	2	 0.0	 0.0	 3	   0.000000	   0.000000	   0.000000;
	2	 0.0	 0.0	 3	   0.000000	   0.000000	   0.000000;
	2	 0.0	 0.0	 3	   0.000000	   0.000000	   0.000000;
	2	 0.0	 0.0	 3	   0.000000	   0.000000	   0.000000;
	2	 0.0	 0.0	 3	   0.000000	   0.000000	   0.000000;
	2	 0.0	 0.0	 3	   0.000000	   0.000000	   0.000000;
	2	 0.0	 0.0	 3	   0.000000	   0.000000	   0.000000;
2	0.0	0.0	3	0.2	141.730000	0.000000;
	2	 0.0	 0.0	 3	   0.000000	   0.000000	   0.000000;
	2	 0.0	 0.0	 3	   0.000000	   0.000000	   0.000000;
	2	 0.0	 0.0	 3	   0.000000	   0.000000	   0.000000;
	2	 0.0	 0.0	 3	   0.000000	   0.000000	   0.000000;
	2	 0.0	 0.0	 3	   0.000000	   0.000000	   0.000000;
	2	 0.0	 0.0	 3	   0.000000	   0.000000	   0.000000;
	2	 0.0	 0.0	 3	   0.000000	   0.000000	   0.000000;
	2	 0.0	 0.0	 3	   0.000000	   0.000000	   0.000000;
2	0.0	0.0	3	0.2	100.820000	0.000000;
2	0.0	0.0	3	0.2	151.900000	0.000000;
	2	 0.0	 0.0	 3	   0.000000	   0.000000	   0.000000;
	2	 0.0	 0.0	 3	   0.000000	   0.000000	   0.000000;
	2	 0.0	 0.0	 3	   0.000000	   0.000000	   0.000000;
	2	 0.0	 0.0	 3	   0.000000	   0.000000	   0.000000;
	2	 0.0	 0.0	 3	   0.000000	   0.000000	   0.000000;
	2	 0.0	 0.0	 3	   0.000000	   0.000000	   0.000000;
	2	 0.0	 0.0	 3	   0.000000	   0.000000	   0.000000;
2	0.0	0.0	3	0.2	114.150000	0.000000;
	2	 0.0	 0.0	 3	   0.000000	   0.000000	   0.000000;
	2	 0.0	 0.0	 3	   0.000000	   0.000000	   0.000000;
	2	 0.0	 0.0	 3	   0.000000	   0.000000	   0.000000;
	2	 0.0	 0.0	 3	   0.000000	   0.000000	   0.000000;
	2	 0.0	 0.0	 3	   0.000000	   0.000000	   0.000000;
	2	 0.0	 0.0	 3	   0.000000	   0.000000	   0.000000;
2	0.0	0.0	3	0.2	87.950000	0.000000;
2	0.0	0.0	3	0.2	130.250000	0.000000;
	2	 0.0	 0.0	 3	   0.000000	   0.000000	   0.000000;
	2	 0.0	 0.0	 3	   0.000000	   0.000000	   0.000000;
	2	 0.0	 0.0	 3	   0.000000	   0.000000	   0.000000;
	2	 0.0	 0.0	 3	   0.000000	   0.000000	   0.000000;
	2	 0.0	 0.0	 3	   0.000000	   0.000000	   0.000000;
	2	 0.0	 0.0	 3	   0.000000	   0.000000	   0.000000;
	2	 0.0	 0.0	 3	   0.000000	   0.000000	   0.000000;
	2	 0.0	 0.0	 3	   0.000000	   0.000000	   0.000000;
	2	 0.0	 0.0	 3	   0.000000	   0.000000	   0.000000;
2	0.0	0.0	3	0.2	145.970000	0.000000;
2	0.0	0.0	3	0.2	137.580000	0.000000;
2	0.0	0.0	3	0.2	147.360000	0.000000;
	2	 0.0	 0.0	 3	   0.000000	   0.000000	   0.000000;
	2	 0.0	 0.0	 3	   0.000000	   0.000000	   0.000000;
	2	 0.0	 0.0	 3	   0.000000	   0.000000	   0.000000;
	2	 0.0	 0.0	 3	   0.000000	   0.000000	   0.000000;
	2	 0.0	 0.0	 3	   0.000000	   0.000000	   0.000000;
	2	 0.0	 0.0	 3	   0.000000	   0.000000	   0.000000;
	2	 0.0	 0.0	 3	   0.000000	   0.000000	   0.000000;
	2	 0.0	 0.0	 3	   0.000000	   0.000000	   0.000000;
	2	 0.0	 0.0	 3	   0.000000	   0.000000	   0.000000;
	2	 0.0	 0.0	 3	   0.000000	   0.000000	   0.000000;
	2	 0.0	 0.0	 3	   0.000000	   0.000000	   0.000000;
2	0.0	0.0	3	0.2	82.920000	0.000000;
2	0.0	0.0	3	0.2	133.590000	0.000000;
	2	 0.0	 0.0	 3	   0.000000	   0.000000	   0.000000;
2	0.0	0.0	3	0.2	152.950000	0.000000;
2	0.0	0.0	3	0.2	67.350000	0.000000;
2	0.0	0.0	3	0.2	134.930000	0.000000;
	2	 0.0	 0.0	 3	   0.000000	   0.000000	   0.000000;
2	0.0	0.0	3	0.2	61.320000	0.000000;
	2	 0.0	 0.0	 3	   0.000000	   0.000000	   0.000000;
	2	 0.0	 0.0	 3	   0.000000	   0.000000	   0.000000;
	2	 0.0	 0.0	 3	   0.000000	   0.000000	   0.000000;
	2	 0.0	 0.0	 3	   0.000000	   0.000000	   0.000000;
	2	 0.0	 0.0	 3	   0.000000	   0.000000	   0.000000;
	2	 0.0	 0.0	 3	   0.000000	   0.000000	   0.000000;
	2	 0.0	 0.0	 3	   0.000000	   0.000000	   0.000000;
	2	 0.0	 0.0	 3	   0.000000	   0.000000	   0.000000;
	2	 0.0	 0.0	 3	   0.000000	   0.000000	   0.000000;
	2	 0.0	 0.0	 3	   0.000000	   0.000000	   0.000000;
	2	 0.0	 0.0	 3	   0.000000	   0.000000	   0.000000;
	2	 0.0	 0.0	 3	   0.000000	   0.000000	   0.000000;
	2	 0.0	 0.0	 3	   0.000000	   0.000000	   0.000000;
	2	 0.0	 0.0	 3	   0.000000	   0.000000	   0.000000;
	2	 0.0	 0.0	 3	   0.000000	   0.000000	   0.000000;
	2	 0.0	 0.0	 3	   0.000000	   0.000000	   0.000000;
2	0.0	0.0	3	0.2	61.400000	0.000000;
2	0.0	0.0	3	0.2	114.990000	0.000000;
2	0.0	0.0	3	0.2	122.640000	0.000000;
2	0.0	0.0	3	0.2	118.840000	0.000000;
	2	 0.0	 0.0	 3	   0.000000	   0.000000	   0.000000;
	2	 0.0	 0.0	 3	   0.000000	   0.000000	   0.000000;
	2	 0.0	 0.0	 3	   0.000000	   0.000000	   0.000000;
	2	 0.0	 0.0	 3	   0.000000	   0.000000	   0.000000;
	2	 0.0	 0.0	 3	   0.000000	   0.000000	   0.000000;
	2	 0.0	 0.0	 3	   0.000000	   0.000000	   0.000000;
	2	 0.0	 0.0	 3	   0.000000	   0.000000	   0.000000;
2	0.0	0.0	3	0.2	143.830000	0.000000;
2	0.0	0.0	3	0.2	67.480000	0.000000;
2	0.0	0.0	3	0.2	88.000000	0.000000;
	2	 0.0	 0.0	 3	   0.000000	   0.000000	   0.000000;
	2	 0.0	 0.0	 3	   0.000000	   0.000000	   0.000000;
	2	 0.0	 0.0	 3	   0.000000	   0.000000	   0.000000;
	2	 0.0	 0.0	 3	   0.000000	   0.000000	   0.000000;
	2	 0.0	 0.0	 3	   0.000000	   0.000000	   0.000000;
	2	 0.0	 0.0	 3	   0.000000	   0.000000	   0.000000;
2	0.0	0.0	3	0.2	129.860000	0.000000;
2	0.0	0.0	3	0.2	108.160000	0.000000;
	2	 0.0	 0.0	 3	   0.000000	   0.000000	   0.000000;
	2	 0.0	 0.0	 3	   0.000000	   0.000000	   0.000000;
	2	 0.0	 0.0	 3	   0.000000	   0.000000	   0.000000;
...
];

%% storage data
%	bus	energy	energy_rating	charge_rating	discharge_rating	thermal_rating	qmin	qmax	r	x	standby_loss	status
mpc.storage = [
	185	0.0	0.0	1.00	543.6450	271.8225	195.7122	0.9	0.85	1000	-1000	1000	0.1	0.01	0	0	1;
	180	0.0	0.0	1.00	509.7750	254.8875	183.5190	0.9	0.85	1000	-1000	1000	0.1	0.01	0	0	1;
	184	0.0	0.0	1.00	476.0100	238.0050	171.3636	0.9	0.85	1000	-1000	1000	0.1	0.01	0	0	1;
	45	0.0	0.0	1.00	239.7600	119.8800	86.3136	0.9	0.85	1000	-1000	1000	0.1	0.01	0	0	1;
	18	0.0	0.0	1.00	229.5000	114.7500	82.6200	0.9	0.85	1000	-1000	1000	0.1	0.01	0	0	1;
	183	0.0	0.0	1.00	225.0000	112.5000	81.0000	0.9	0.85	1000	-1000	1000	0.1	0.01	0	0	1;
	1712	0.0	0.0	1.00	173.0550	86.5275	62.2998	0.9	0.85	1000	-1000	1000	0.1	0.01	0	0	1;
	2221	0.0	0.0	1.00	142.3500	71.1750	51.2460	0.9	0.85	1000	-1000	1000	0.1	0.01	0	0	1;
	681	0.0	0.0	1.00	119.8800	59.9400	43.1568	0.9	0.85	1000	-1000	1000	0.1	0.01	0	0	1;
	17	0.0	0.0	1.00	115.5000	57.7500	41.5800	0.9	0.85	1000	-1000	1000	0.1	0.01	0	0	1;
	1904	0.0	0.0	1.00	110.4300	55.2150	39.7548	0.9	0.85	1000	-1000	1000	0.1	0.01	0	0	1;
	2336	0.0	0.0	1.00	103.3950	51.6975	37.2222	0.9	0.85	1000	-1000	1000	0.1	0.01	0	0	1;
	131	0.0	0.0	1.00	103.0050	51.5025	37.0818	0.9	0.85	1000	-1000	1000	0.1	0.01	0	0	1;
	1504	0.0	0.0	1.00	97.0950	48.5475	34.9542	0.9	0.85	1000	-1000	1000	0.1	0.01	0	0	1;
	1016	0.0	0.0	1.00	94.9950	47.4975	34.1982	0.9	0.85	1000	-1000	1000	0.1	0.01	0	0	1;
	1175	0.0	0.0	1.00	93.3450	46.6725	33.6042	0.9	0.85	1000	-1000	1000	0.1	0.01	0	0	1;
	1947	0.0	0.0	1.00	92.2800	46.1400	33.2208	0.9	0.85	1000	-1000	1000	0.1	0.01	0	0	1;
	467	0.0	0.0	1.00	91.6350	45.8175	32.9886	0.9	0.85	1000	-1000	1000	0.1	0.01	0	0	1;
	67	0.0	0.0	1.00	90.6000	45.3000	32.6160	0.9	0.85	1000	-1000	1000	0.1	0.01	0	0	1;
	1505	0.0	0.0	1.00	90.0600	45.0300	32.4216	0.9	0.85	1000	-1000	1000	0.1	0.01	0	0	1;
	1059	0.0	0.0	1.00	89.0100	44.5050	32.0436	0.9	0.85	1000	-1000	1000	0.1	0.01	0	0	1;
	1779	0.0	0.0	1.00	88.9950	44.4975	32.0382	0.9	0.85	1000	-1000	1000	0.1	0.01	0	0	1;
	1565	0.0	0.0	1.00	87.0600	43.5300	31.3416	0.9	0.85	1000	-1000	1000	0.1	0.01	0	0	1;
	16	0.0	0.0	1.00	82.3200	41.1600	29.6352	0.9	0.85	1000	-1000	1000	0.1	0.01	0	0	1;
	790	0.0	0.0	1.00	81.5250	40.7625	29.3490	0.9	0.85	1000	-1000	1000	0.1	0.01	0	0	1;
	501	0.0	0.0	1.00	79.4250	39.7125	28.5930	0.9	0.85	1000	-1000	1000	0.1	0.01	0	0	1;
	1490	0.0	0.0	1.00	78.6750	39.3375	28.3230	0.9	0.85	1000	-1000	1000	0.1	0.01	0	0	1;
	277	0.0	0.0	1.00	78.2100	39.1050	28.1556	0.9	0.85	1000	-1000	1000	0.1	0.01	0	0	1;
	664	0.0	0.0	1.00	75.9750	37.9875	27.3510	0.9	0.85	1000	-1000	1000	0.1	0.01	0	0	1;
	892	0.0	0.0	1.00	75.8250	37.9125	27.2970	0.9	0.85	1000	-1000	1000	0.1	0.01	0	0	1;
	2383	0.0	0.0	1.00	75.0000	37.5000	27.0000	0.9	0.85	1000	-1000	1000	0.1	0.01	0	0	1;
	2372	0.0	0.0	1.00	74.9250	37.4625	26.9730	0.9	0.85	1000	-1000	1000	0.1	0.01	0	0	1;
	330	0.0	0.0	1.00	72.5400	36.2700	26.1144	0.9	0.85	1000	-1000	1000	0.1	0.01	0	0	1;
	331	0.0	0.0	1.00	72.5400	36.2700	26.1144	0.9	0.85	1000	-1000	1000	0.1	0.01	0	0	1;
	299	0.0	0.0	1.00	72.0900	36.0450	25.9524	0.9	0.85	1000	-1000	1000	0.1	0.01	0	0	1;
	1107	0.0	0.0	1.00	71.3400	35.6700	25.6824	0.9	0.85	1000	-1000	1000	0.1	0.01	0	0	1;
	485	0.0	0.0	1.00	70.2600	35.1300	25.2936	0.9	0.85	1000	-1000	1000	0.1	0.01	0	0	1;
	1706	0.0	0.0	1.00	69.3900	34.6950	24.9804	0.9	0.85	1000	-1000	1000	0.1	0.01	0	0	1;
	328	0.0	0.0	1.00	68.7450	34.3725	24.7482	0.9	0.85	1000	-1000	1000	0.1	0.01	0	0	1;
	329	0.0	0.0	1.00	68.7450	34.3725	24.7482	0.9	0.85	1000	-1000	1000	0.1	0.01	0	0	1;
	493	0.0	0.0	1.00	67.2150	33.6075	24.1974	0.9	0.85	1000	-1000	1000	0.1	0.01	0	0	1;
	2096	0.0	0.0	1.00	64.9350	32.4675	23.3766	0.9	0.85	1000	-1000	1000	0.1	0.01	0	0	1;
	626	0.0	0.0	1.00	63.2400	31.6200	22.7664	0.9	0.85	1000	-1000	1000	0.1	0.01	0	0	1;
	1600	0.0	0.0	1.00	62.1900	31.0950	22.3884	0.9	0.85	1000	-1000	1000	0.1	0.01	0	0	1;
	502	0.0	0.0	1.00	61.1100	30.5550	21.9996	0.9	0.85	1000	-1000	1000	0.1	0.01	0	0	1;
	912	0.0	0.0	1.00	60.4050	30.2025	21.7458	0.9	0.85	1000	-1000	1000	0.1	0.01	0	0	1;
	2373	0.0	0.0	1.00	59.9550	29.9775	21.5838	0.9	0.85	1000	-1000	1000	0.1	0.01	0	0	1;
	1060	0.0	0.0	1.00	59.8050	29.9025	21.5298	0.9	0.85	1000	-1000	1000	0.1	0.01	0	0	1;
	2087	0.0	0.0	1.00	59.6700	29.8350	21.4812	0.9	0.85	1000	-1000	1000	0.1	0.01	0	0	1;
	462	0.0	0.0	1.00	59.5800	29.7900	21.4488	0.9	0.85	1000	-1000	1000	0.1	0.01	0	0	1;
	1708	0.0	0.0	1.00	59.3400	29.6700	21.3624	0.9	0.85	1000	-1000	1000	0.1	0.01	0	0	1;
	1020	0.0	0.0	1.00	59.0550	29.5275	21.2598	0.9	0.85	1000	-1000	1000	0.1	0.01	0	0	1;
	804	0.0	0.0	1.00	58.3050	29.1525	20.9898	0.9	0.85	1000	-1000	1000	0.1	0.01	0	0	1;
	494	0.0	0.0	1.00	58.0500	29.0250	20.8980	0.9	0.85	1000	-1000	1000	0.1	0.01	0	0	1;
	1106	0.0	0.0	1.00	57.8550	28.9275	20.8278	0.9	0.85	1000	-1000	1000	0.1	0.01	0	0	1;
	754	0.0	0.0	1.00	56.9550	28.4775	20.5038	0.9	0.85	1000	-1000	1000	0.1	0.01	0	0	1;
	63	0.0	0.0	1.00	56.0550	28.0275	20.1798	0.9	0.85	1000	-1000	1000	0.1	0.01	0	0	1;
	603	0.0	0.0	1.00	55.9050	27.9525	20.1258	0.9	0.85	1000	-1000	1000	0.1	0.01	0	0	1;
	515	0.0	0.0	1.00	55.0350	27.5175	19.8126	0.9	0.85	1000	-1000	1000	0.1	0.01	0	0	1;
	483	0.0	0.0	1.00	54.9900	27.4950	19.7964	0.9	0.85	1000	-1000	1000	0.1	0.01	0	0	1;
	491	0.0	0.0	1.00	54.9900	27.4950	19.7964	0.9	0.85	1000	-1000	1000	0.1	0.01	0	0	1;
	125	0.0	0.0	1.00	53.5500	26.7750	19.2780	0.9	0.85	1000	-1000	1000	0.1	0.01	0	0	1;
	64	0.0	0.0	1.00	53.0550	26.5275	19.0998	0.9	0.85	1000	-1000	1000	0.1	0.01	0	0	1;
	615	0.0	0.0	1.00	52.6050	26.3025	18.9378	0.9	0.85	1000	-1000	1000	0.1	0.01	0	0	1;
	911	0.0	0.0	1.00	52.4550	26.2275	18.8838	0.9	0.85	1000	-1000	1000	0.1	0.01	0	0	1;
	2339	0.0	0.0	1.00	52.4550	26.2275	18.8838	0.9	0.85	1000	-1000	1000	0.1	0.01	0	0	1;
	1587	0.0	0.0	1.00	52.3050	26.1525	18.8298	0.9	0.85	1000	-1000	1000	0.1	0.01	0	0	1;
	366	0.0	0.0	1.00	51.9300	25.9650	18.6948	0.9	0.85	1000	-1000	1000	0.1	0.01	0	0	1;
	425	0.0	0.0	1.00	50.8800	25.4400	18.3168	0.9	0.85	1000	-1000	1000	0.1	0.01	0	0	1;
	105	0.0	0.0	1.00	50.6700	25.3350	18.2412	0.9	0.85	1000	-1000	1000	0.1	0.01	0	0	1;
	235	0.0	0.0	1.00	50.6400	25.3200	18.2304	0.9	0.85	1000	-1000	1000	0.1	0.01	0	0	1;
	104	0.0	0.0	1.00	50.5200	25.2600	18.1872	0.9	0.85	1000	-1000	1000	0.1	0.01	0	0	1;
	365	0.0	0.0	1.00	50.4150	25.2075	18.1494	0.9	0.85	1000	-1000	1000	0.1	0.01	0	0	1;
	234	0.0	0.0	1.00	50.1900	25.0950	18.0684	0.9	0.85	1000	-1000	1000	0.1	0.01	0	0	1;
	186	0.0	0.0	1.00	49.9950	24.9975	17.9982	0.9	0.85	1000	-1000	1000	0.1	0.01	0	0	1;
	139	0.0	0.0	1.00	49.8000	24.9000	17.9280	0.9	0.85	1000	-1000	1000	0.1	0.01	0	0	1;
	132	0.0	0.0	1.00	49.5000	24.7500	17.8200	0.9	0.85	1000	-1000	1000	0.1	0.01	0	0	1;
	2368	0.0	0.0	1.00	49.4700	24.7350	17.8092	0.9	0.85	1000	-1000	1000	0.1	0.01	0	0	1;
	514	0.0	0.0	1.00	48.8400	24.4200	17.5824	0.9	0.85	1000	-1000	1000	0.1	0.01	0	0	1;
	311	0.0	0.0	1.00	48.6000	24.3000	17.4960	0.9	0.85	1000	-1000	1000	0.1	0.01	0	0	1;
	820	0.0	0.0	1.00	48.2700	24.1350	17.3772	0.9	0.85	1000	-1000	1000	0.1	0.01	0	0	1;
	914	0.0	0.0	1.00	47.8200	23.9100	17.2152	0.9	0.85	1000	-1000	1000	0.1	0.01	0	0	1;
	1244	0.0	0.0	1.00	47.6700	23.8350	17.1612	0.9	0.85	1000	-1000	1000	0.1	0.01	0	0	1;
	508	0.0	0.0	1.00	47.3700	23.6850	17.0532	0.9	0.85	1000	-1000	1000	0.1	0.01	0	0	1;
	1249	0.0	0.0	1.00	47.3700	23.6850	17.0532	0.9	0.85	1000	-1000	1000	0.1	0.01	0	0	1;
	1976	0.0	0.0	1.00	46.6650	23.3325	16.7994	0.9	0.85	1000	-1000	1000	0.1	0.01	0	0	1;
	482	0.0	0.0	1.00	46.6050	23.3025	16.7778	0.9	0.85	1000	-1000	1000	0.1	0.01	0	0	1;
	1234	0.0	0.0	1.00	46.4700	23.2350	16.7292	0.9	0.85	1000	-1000	1000	0.1	0.01	0	0	1;
	878	0.0	0.0	1.00	46.3200	23.1600	16.6752	0.9	0.85	1000	-1000	1000	0.1	0.01	0	0	1;
	665	0.0	0.0	1.00	46.0200	23.0100	16.5672	0.9	0.85	1000	-1000	1000	0.1	0.01	0	0	1;
	281	0.0	0.0	1.00	45.9900	22.9950	16.5564	0.9	0.85	1000	-1000	1000	0.1	0.01	0	0	1;
	192	0.0	0.0	1.00	45.8400	22.9200	16.5024	0.9	0.85	1000	-1000	1000	0.1	0.01	0	0	1;
	455	0.0	0.0	1.00	45.8400	22.9200	16.5024	0.9	0.85	1000	-1000	1000	0.1	0.01	0	0	1;
	468	0.0	0.0	1.00	45.8400	22.9200	16.5024	0.9	0.85	1000	-1000	1000	0.1	0.01	0	0	1;
	834	0.0	0.0	1.00	45.5700	22.7850	16.4052	0.9	0.85	1000	-1000	1000	0.1	0.01	0	0	1;
	1027	0.0	0.0	1.00	45.4200	22.7100	16.3512	0.9	0.85	1000	-1000	1000	0.1	0.01	0	0	1;
	1029	0.0	0.0	1.00	45.4200	22.7100	16.3512	0.9	0.85	1000	-1000	1000	0.1	0.01	0	0	1;
	2159	0.0	0.0	1.00	44.9700	22.4850	16.1892	0.9	0.85	1000	-1000	1000	0.1	0.01	0	0	1;
	2328	0.0	0.0	1.00	44.9700	22.4850	16.1892	0.9	0.85	1000	-1000	1000	0.1	0.01	0	0	1;
	1329	0.0	0.0	1.00	44.6700	22.3350	16.0812	0.9	0.85	1000	-1000	1000	0.1	0.01	0	0	1;
	1974	0.0	0.0	1.00	44.6700	22.3350	16.0812	0.9	0.85	1000	-1000	1000	0.1	0.01	0	0	1;
	286	0.0	0.0	1.00	44.6250	22.3125	16.0650	0.9	0.85	1000	-1000	1000	0.1	0.01	0	0	1;
	1324	0.0	0.0	1.00	44.5200	22.2600	16.0272	0.9	0.85	1000	-1000	1000	0.1	0.01	0	0	1;
	140	0.0	0.0	1.00	43.8450	21.9225	15.7842	0.9	0.85	1000	-1000	1000	0.1	0.01	0	0	1;
	1707	0.0	0.0	1.00	43.8450	21.9225	15.7842	0.9	0.85	1000	-1000	1000	0.1	0.01	0	0	1;
	1932	0.0	0.0	1.00	43.6950	21.8475	15.7302	0.9	0.85	1000	-1000	1000	0.1	0.01	0	0	1;
	1250	0.0	0.0	1.00	43.6200	21.8100	15.7032	0.9	0.85	1000	-1000	1000	0.1	0.01	0	0	1;
	2012	0.0	0.0	1.00	42.8550	21.4275	15.4278	0.9	0.85	1000	-1000	1000	0.1	0.01	0	0	1;
	2027	0.0	0.0	1.00	42.8550	21.4275	15.4278	0.9	0.85	1000	-1000	1000	0.1	0.01	0	0	1;
	457	0.0	0.0	1.00	42.7800	21.3900	15.4008	0.9	0.85	1000	-1000	1000	0.1	0.01	0	0	1;
	1039	0.0	0.0	1.00	42.7200	21.3600	15.3792	0.9	0.85	1000	-1000	1000	0.1	0.01	0	0	1;
	904	0.0	0.0	1.00	42.4200	21.2100	15.2712	0.9	0.85	1000	-1000	1000	0.1	0.01	0	0	1;
	1508	0.0	0.0	1.00	42.1200	21.0600	15.1632	0.9	0.85	1000	-1000	1000	0.1	0.01	0	0	1;
	1543	0.0	0.0	1.00	42.1200	21.0600	15.1632	0.9	0.85	1000	-1000	1000	0.1	0.01	0	0	1;
	1918	0.0	0.0	1.00	42.0300	21.0150	15.1308	0.9	0.85	1000	-1000	1000	0.1	0.01	0	0	1;
	755	0.0	0.0	1.00	41.9700	20.9850	15.1092	0.9	0.85	1000	-1000	1000	0.1	0.01	0	0	1;
	250	0.0	0.0	1.00	41.5650	20.7825	14.9634	0.9	0.85	1000	-1000	1000	0.1	0.01	0	0	1;
	456	0.0	0.0	1.00	41.2500	20.6250	14.8500	0.9	0.85	1000	-1000	1000	0.1	0.01	0	0	1;
	463	0.0	0.0	1.00	41.2500	20.6250	14.8500	0.9	0.85	1000	-1000	1000	0.1	0.01	0	0	1;
	505	0.0	0.0	1.00	41.2500	20.6250	14.8500	0.9	0.85	1000	-1000	1000	0.1	0.01	0	0	1;
	507	0.0	0.0	1.00	41.2500	20.6250	14.8500	0.9	0.85	1000	-1000	1000	0.1	0.01	0	0	1;
	604	0.0	0.0	1.00	41.0700	20.5350	14.7852	0.9	0.85	1000	-1000	1000	0.1	0.01	0	0	1;
	795	0.0	0.0	1.00	40.4700	20.2350	14.5692	0.9	0.85	1000	-1000	1000	0.1	0.01	0	0	1;
	929	0.0	0.0	1.00	40.4700	20.2350	14.5692	0.9	0.85	1000	-1000	1000	0.1	0.01	0	0	1;
	2312	0.0	0.0	1.00	40.4700	20.2350	14.5692	0.9	0.85	1000	-1000	1000	0.1	0.01	0	0	1;
	705	0.0	0.0	1.00	40.3200	20.1600	14.5152	0.9	0.85	1000	-1000	1000	0.1	0.01	0	0	1;
	699	0.0	0.0	1.00	40.1700	20.0850	14.4612	0.9	0.85	1000	-1000	1000	0.1	0.01	0	0	1;
	1572	0.0	0.0	1.00	40.1700	20.0850	14.4612	0.9	0.85	1000	-1000	1000	0.1	0.01	0	0	1;
	1768	0.0	0.0	1.00	40.0650	20.0325	14.4234	0.9	0.85	1000	-1000	1000	0.1	0.01	0	0	1;
	1097	0.0	0.0	1.00	39.8700	19.9350	14.3532	0.9	0.85	1000	-1000	1000	0.1	0.01	0	0	1;
	111	0.0	0.0	1.00	39.7350	19.8675	14.3046	0.9	0.85	1000	-1000	1000	0.1	0.01	0	0	1;
	1995	0.0	0.0	1.00	39.7350	19.8675	14.3046	0.9	0.85	1000	-1000	1000	0.1	0.01	0	0	1;
	504	0.0	0.0	1.00	39.7200	19.8600	14.2992	0.9	0.85	1000	-1000	1000	0.1	0.01	0	0	1;
	1190	0.0	0.0	1.00	39.7200	19.8600	14.2992	0.9	0.85	1000	-1000	1000	0.1	0.01	0	0	1;
	2006	0.0	0.0	1.00	39.5700	19.7850	14.2452	0.9	0.85	1000	-1000	1000	0.1	0.01	0	0	1;
	919	0.0	0.0	1.00	39.4200	19.7100	14.1912	0.9	0.85	1000	-1000	1000	0.1	0.01	0	0	1;
	623	0.0	0.0	1.00	39.2700	19.6350	14.1372	0.9	0.85	1000	-1000	1000	0.1	0.01	0	0	1;
	2203	0.0	0.0	1.00	39.1200	19.5600	14.0832	0.9	0.85	1000	-1000	1000	0.1	0.01	0	0	1;
	29	0.0	0.0	1.00	38.9700	19.4850	14.0292	0.9	0.85	1000	-1000	1000	0.1	0.01	0	0	1;
	30	0.0	0.0	1.00	38.9700	19.4850	14.0292	0.9	0.85	1000	-1000	1000	0.1	0.01	0	0	1;
	556	0.0	0.0	1.00	38.8200	19.4100	13.9752	0.9	0.85	1000	-1000	1000	0.1	0.01	0	0	1;
	670	0.0	0.0	1.00	38.8200	19.4100	13.9752	0.9	0.85	1000	-1000	1000	0.1	0.01	0	0	1;
	1549	0.0	0.0	1.00	38.8200	19.4100	13.9752	0.9	0.85	1000	-1000	1000	0.1	0.01	0	0	1;
	1745	0.0	0.0	1.00	38.7450	19.3725	13.9482	0.9	0.85	1000	-1000	1000	0.1	0.01	0	0	1;
	1815	0.0	0.0	1.00	38.7450	19.3725	13.9482	0.9	0.85	1000	-1000	1000	0.1	0.01	0	0	1;
	630	0.0	0.0	1.00	38.6700	19.3350	13.9212	0.9	0.85	1000	-1000	1000	0.1	0.01	0	0	1;
	651	0.0	0.0	1.00	38.6700	19.3350	13.9212	0.9	0.85	1000	-1000	1000	0.1	0.01	0	0	1;
	127	0.0	0.0	1.00	38.5650	19.2825	13.8834	0.9	0.85	1000	-1000	1000	0.1	0.01	0	0	1;
	274	0.0	0.0	1.00	38.5050	19.2525	13.8618	0.9	0.85	1000	-1000	1000	0.1	0.01	0	0	1;
	1749	0.0	0.0	1.00	38.4150	19.2075	13.8294	0.9	0.85	1000	-1000	1000	0.1	0.01	0	0	1;
	1009	0.0	0.0	1.00	38.0700	19.0350	13.7052	0.9	0.85	1000	-1000	1000	0.1	0.01	0	0	1;
	126	0.0	0.0	1.00	37.9200	18.9600	13.6512	0.9	0.85	1000	-1000	1000	0.1	0.01	0	0	1;
	1276	0.0	0.0	1.00	37.9200	18.9600	13.6512	0.9	0.85	1000	-1000	1000	0.1	0.01	0	0	1;
	1876	0.0	0.0	1.00	37.9200	18.9600	13.6512	0.9	0.85	1000	-1000	1000	0.1	0.01	0	0	1;
	678	0.0	0.0	1.00	37.7700	18.8850	13.5972	0.9	0.85	1000	-1000	1000	0.1	0.01	0	0	1;
	679	0.0	0.0	1.00	37.7700	18.8850	13.5972	0.9	0.85	1000	-1000	1000	0.1	0.01	0	0	1;
	376	0.0	0.0	1.00	37.7400	18.8700	13.5864	0.9	0.85	1000	-1000	1000	0.1	0.01	0	0	1;
	2141	0.0	0.0	1.00	37.4700	18.7350	13.4892	0.9	0.85	1000	-1000	1000	0.1	0.01	0	0	1;
	2323	0.0	0.0	1.00	37.4700	18.7350	13.4892	0.9	0.85	1000	-1000	1000	0.1	0.01	0	0	1;
	278	0.0	0.0	1.00	37.4250	18.7125	13.4730	0.9	0.85	1000	-1000	1000	0.1	0.01	0	0	1;
	279	0.0	0.0	1.00	37.4250	18.7125	13.4730	0.9	0.85	1000	-1000	1000	0.1	0.01	0	0	1;
	379	0.0	0.0	1.00	37.4250	18.7125	13.4730	0.9	0.85	1000	-1000	1000	0.1	0.01	0	0	1;
	2011	0.0	0.0	1.00	37.4250	18.7125	13.4730	0.9	0.85	1000	-1000	1000	0.1	0.01	0	0	1;
	2326	0.0	0.0	1.00	37.0200	18.5100	13.3272	0.9	0.85	1000	-1000	1000	0.1	0.01	0	0	1;
	2197	0.0	0.0	1.00	36.8700	18.4350	13.2732	0.9	0.85	1000	-1000	1000	0.1	0.01	0	0	1;
	2267	0.0	0.0	1.00	36.7200	18.3600	13.2192	0.9	0.85	1000	-1000	1000	0.1	0.01	0	0	1;
	226	0.0	0.0	1.00	36.6600	18.3300	13.1976	0.9	0.85	1000	-1000	1000	0.1	0.01	0	0	1;
	478	0.0	0.0	1.00	36.6600	18.3300	13.1976	0.9	0.85	1000	-1000	1000	0.1	0.01	0	0	1;
	497	0.0	0.0	1.00	36.6600	18.3300	13.1976	0.9	0.85	1000	-1000	1000	0.1	0.01	0	0	1;
	498	0.0	0.0	1.00	36.6600	18.3300	13.1976	0.9	0.85	1000	-1000	1000	0.1	0.01	0	0	1;
	1759	0.0	0.0	1.00	36.6000	18.3000	13.1760	0.9	0.85	1000	-1000	1000	0.1	0.01	0	0	1;
	2018	0.0	0.0	1.00	36.6000	18.3000	13.1760	0.9	0.85	1000	-1000	1000	0.1	0.01	0	0	1;
	1966	0.0	0.0	1.00	36.4200	18.2100	13.1112	0.9	0.85	1000	-1000	1000	0.1	0.01	0	0	1;
	787	0.0	0.0	1.00	36.2700	18.1350	13.0572	0.9	0.85	1000	-1000	1000	0.1	0.01	0	0	1;
	907	0.0	0.0	1.00	36.2700	18.1350	13.0572	0.9	0.85	1000	-1000	1000	0.1	0.01	0	0	1;
	1363	0.0	0.0	1.00	36.2700	18.1350	13.0572	0.9	0.85	1000	-1000	1000	0.1	0.01	0	0	1;
	1739	0.0	0.0	1.00	36.2550	18.1275	13.0518	0.9	0.85	1000	-1000	1000	0.1	0.01	0	0	1;
	1873	0.0	0.0	1.00	36.2550	18.1275	13.0518	0.9	0.85	1000	-1000	1000	0.1	0.01	0	0	1;
	1986	0.0	0.0	1.00	36.2550	18.1275	13.0518	0.9	0.85	1000	-1000	1000	0.1	0.01	0	0	1;
	2099	0.0	0.0	1.00	36.2550	18.1275	13.0518	0.9	0.85	1000	-1000	1000	0.1	0.01	0	0	1;
	684	0.0	0.0	1.00	36.1200	18.0600	13.0032	0.9	0.85	1000	-1000	1000	0.1	0.01	0	0	1;
	1030	0.0	0.0	1.00	36.1200	18.0600	13.0032	0.9	0.85	1000	-1000	1000	0.1	0.01	0	0	1;
	43	0.0	0.0	1.00	35.9700	17.9850	12.9492	0.9	0.85	1000	-1000	1000	0.1	0.01	0	0	1;
	44	0.0	0.0	1.00	35.9700	17.9850	12.9492	0.9	0.85	1000	-1000	1000	0.1	0.01	0	0	1;
	712	0.0	0.0	1.00	35.9700	17.9850	12.9492	0.9	0.85	1000	-1000	1000	0.1	0.01	0	0	1;
	2194	0.0	0.0	1.00	35.9700	17.9850	12.9492	0.9	0.85	1000	-1000	1000	0.1	0.01	0	0	1;
	2256	0.0	0.0	1.00	35.9700	17.9850	12.9492	0.9	0.85	1000	-1000	1000	0.1	0.01	0	0	1;
	2300	0.0	0.0	1.00	35.9700	17.9850	12.9492	0.9	0.85	1000	-1000	1000	0.1	0.01	0	0	1;
	2306	0.0	0.0	1.00	35.9700	17.9850	12.9492	0.9	0.85	1000	-1000	1000	0.1	0.01	0	0	1;
	1051	0.0	0.0	1.00	35.3700	17.6850	12.7332	0.9	0.85	1000	-1000	1000	0.1	0.01	0	0	1;
	1203	0.0	0.0	1.00	35.3700	17.6850	12.7332	0.9	0.85	1000	-1000	1000	0.1	0.01	0	0	1;
	2303	0.0	0.0	1.00	35.3700	17.6850	12.7332	0.9	0.85	1000	-1000	1000	0.1	0.01	0	0	1;
	2343	0.0	0.0	1.00	35.3700	17.6850	12.7332	0.9	0.85	1000	-1000	1000	0.1	0.01	0	0	1;
	395	0.0	0.0	1.00	35.1300	17.5650	12.6468	0.9	0.85	1000	-1000	1000	0.1	0.01	0	0	1;
	465	0.0	0.0	1.00	35.1300	17.5650	12.6468	0.9	0.85	1000	-1000	1000	0.1	0.01	0	0	1;
	1195	0.0	0.0	1.00	35.0700	17.5350	12.6252	0.9	0.85	1000	-1000	1000	0.1	0.01	0	0	1;
	2363	0.0	0.0	1.00	35.0700	17.5350	12.6252	0.9	0.85	1000	-1000	1000	0.1	0.01	0	0	1;
	1291	0.0	0.0	1.00	34.9200	17.4600	12.5712	0.9	0.85	1000	-1000	1000	0.1	0.01	0	0	1;
	275	0.0	0.0	1.00	34.8300	17.4150	12.5388	0.9	0.85	1000	-1000	1000	0.1	0.01	0	0	1;
	1795	0.0	0.0	1.00	34.7850	17.3925	12.5226	0.9	0.85	1000	-1000	1000	0.1	0.01	0	0	1;
...
];

%% branch data
%	fbus	tbus	r	x	b	rateA	rateB	rateC	ratio	angle	status	angmin	angmax
mpc.branch = [
	16	 1	 0.00155	 0.01169	 0.0182	 160.0	 160.0	 160.0	 0.0	 0.0	 1	 -30.0	 30.0;
	355	 1	 0.00157	 0.06612	 0.0	 160.0	 160.0	 160.0	 1.0099	 0.0	 1	 -30.0	 30.0;
	17	 2	 0.00155	 0.01169	 0.0182	 160.0	 160.0	 160.0	 0.0	 0.0	 1	 -30.0	 30.0;
	354	 2	 0.00157	 0.06612	 0.0	 160.0	 160.0	 160.0	 1.022	 0.0	 1	 -30.0	 30.0;
	10	 3	 0.01068	 0.07895	 0.1226	 274.0	 274.0	 274.0	 0.0	 0.0	 1	 -30.0	 30.0;
	219	 3	 0.00165	 0.06736	 0.0	 160.0	 160.0	 160.0	 1.027	 0.0	 1	 -30.0	 30.0;
	220	 3	 0.00165	 0.06736	 0.0	 160.0	 160.0	 160.0	 0.9955	 0.0	 1	 -30.0	 30.0;
	7	 4	 0.01674	 0.09711	 0.14423	 377.0	 377.0	 377.0	 0.0	 0.0	 1	 -30.0	 30.0;
	11	 4	 0.00293	 0.01599	 0.02478	 335.0	 335.0	 335.0	 0.0	 0.0	 1	 -30.0	 30.0;
	14	 4	 0.00442	 0.03223	 0.04985	 464.0	 464.0	 464.0	 0.0	 0.0	 1	 -30.0	 30.0;
	16	 4	 0.00888	 0.06665	 0.08896	 377.0	 377.0	 377.0	 0.0	 0.0	 1	 -30.0	 30.0;
	22	 4	 0.00783	 0.043	 0.04962	 350.0	 350.0	 350.0	 0.0	 0.0	 1	 -30.0	 30.0;
	245	 4	 0.00165	 0.06901	 0.0	 160.0	 160.0	 160.0	 1.0594	 0.0	 1	 -30.0	 30.0;
	246	 4	 0.00165	 0.06901	 0.0	 160.0	 160.0	 160.0	 1.0448	 0.0	 1	 -30.0	 30.0;
	5	 6	 0.00064	 0.0305	 0.0	 400.0	 400.0	 400.0	 1.0435	 0.6	 1	 -30.0	 30.0;
	7	 5	 0.00525	 0.03988	 0.06195	 381.0	 381.0	 381.0	 0.0	 0.0	 1	 -30.0	 30.0;
	10	 5	 0.01459	 0.11219	 0.16553	 381.0	 381.0	 381.0	 0.0	 0.0	 1	 -30.0	 30.0;
	309	 5	 0.00165	 0.0686	 0.0	 160.0	 160.0	 160.0	 1.0646	 0.0	 1	 -30.0	 30.0;
	309	 5	 0.00165	 0.0686	 0.0	 160.0	 160.0	 160.0	 1.0523	 0.0	 1	 -30.0	 30.0;
	6	 8	 0.00112	 0.01329	 0.34125	 1316.0	 1316.0	 1316.0	 0.0	 0.0	 1	 -30.0	 30.0;
	6	 9	 0.00299	 0.03675	 0.9184	 1427.0	 1427.0	 1427.0	 0.0	 0.0	 1	 -30.0	 30.0;
	15	 6	 0.00298	 0.03417	 0.93504	 1427.0	 1427.0	 1427.0	 0.0	 0.0	 1	 -30.0	 30.0;
	31	 6	 0.0015	 0.01506	 0.4032	 1385.0	 1385.0	 1385.0	 0.0	 0.0	 1	 -30.0	 30.0;
	310	 6	 0.0015	 0.06188	 0.0	 250.0	 250.0	 250.0	 1.0613	 0.0	 1	 -30.0	 30.0;
...